_clean.pdb
 OpenBabel07302610293D

 61 60  0  0  1  0  0  0  0  0999 V2000
   -0.8970    2.7590    0.7130 N   0  0  0  0  0  0  0  0  0  0  0  0
    0.4810    3.0470    0.3460 C   0  0  0  0  0  0  0  0  0  0  0  0
    1.4540    2.4210    1.3370 C   0  0  0  0  0  0  0  0  0  0  0  0
    2.5890    2.1070    0.9800 O   0  0  0  0  0  0  0  0  0  0  0  0
    0.7160    4.5440    0.2770 C   0  0  0  0  0  0  0  0  0  0  0  0
   -0.0640    5.2650   -0.8060 C   0  0  0  0  0  0  0  0  0  0  0  0
    0.1240    6.7740   -0.6790 C   0  0  0  0  0  0  0  0  0  0  0  0
    0.3610    4.7880   -2.1880 C   0  0  0  0  0  0  0  0  0  0  0  0
    1.0420    2.2740    2.5650 N   0  0  0  0  0  0  0  0  0  0  0  0
    1.8700    1.6400    3.5810 C   0  0  2  0  0  0  0  0  0  0  0  0
    1.8350    0.1250    3.4860 C   0  0  0  0  0  0  0  0  0  0  0  0
    2.7420   -0.5530    3.9660 O   0  0  0  0  0  0  0  0  0  0  0  0
    1.4520    2.0840    4.9770 C   0  0  0  0  0  0  0  0  0  0  0  0
    1.6480    3.5630    5.2990 C   0  0  0  0  0  0  0  0  0  0  0  0
    1.0230    3.8780    6.6560 C   0  0  0  0  0  0  0  0  0  0  0  0
    3.1240    3.9210    5.2960 C   0  0  0  0  0  0  0  0  0  0  0  0
    0.7970   -0.3750    2.8720 N   0  0  0  0  0  0  0  0  0  0  0  0
    0.6250   -1.8060    2.6890 C   0  0  2  0  0  0  0  0  0  0  0  0
    0.1340   -2.0120    1.2580 C   0  0  0  0  0  0  0  0  0  0  0  0
   -1.0060   -1.6650    0.9510 O   0  0  0  0  0  0  0  0  0  0  0  0
   -0.4110   -2.3340    3.6760 C   0  0  0  0  0  0  0  0  0  0  0  0
   -0.0430   -2.1030    5.1030 C   0  0  0  0  0  0  0  0  0  0  0  0
    0.8800   -2.8800    5.7900 N   0  0  0  0  0  0  0  0  0  0  0  0
   -0.4620   -1.1620    5.9960 C   0  0  0  0  0  0  0  0  0  0  0  0
    1.0050   -2.4310    7.0230 C   0  0  0  0  0  0  0  0  0  0  0  0
    0.1980   -1.3880    7.1680 N   0  0  0  0  0  0  0  0  0  0  0  0
    0.9880   -2.5380    0.4100 N   0  0  0  0  0  0  0  0  0  0  0  0
    0.6680   -2.6400   -1.0120 C   0  0  2  0  0  0  0  0  0  0  0  0
   -0.7170   -3.1440   -1.3790 C   0  0  0  0  0  0  0  0  0  0  0  0
   -1.3110   -2.6570   -2.3430 O   0  0  0  0  0  0  0  0  0  0  0  0
    1.7670   -3.5710   -1.5340 C   0  0  0  0  0  0  0  0  0  0  0  0
    2.9270   -3.2690   -0.6480 C   0  0  0  0  0  0  0  0  0  0  0  0
    2.3140   -3.0850    0.7200 C   0  0  0  0  0  0  0  0  0  0  0  0
   -1.2510   -4.0870   -0.6430 N   0  0  0  0  0  0  0  0  0  0  0  0
   -2.5610   -4.6450   -0.9420 C   0  0  2  0  0  0  0  0  0  0  0  0
   -3.7000   -3.7900   -0.4090 C   0  0  0  0  0  0  0  0  0  0  0  0
   -4.8470   -3.9890   -0.7910 O   0  0  0  0  0  0  0  0  0  0  0  0
   -2.6670   -6.0570   -0.3780 C   0  0  0  0  0  0  0  0  0  0  0  0
   -1.7370   -7.0990   -0.9940 C   0  0  0  0  0  0  0  0  0  0  0  0
   -1.8580   -8.4070   -0.2280 C   0  0  0  0  0  0  0  0  0  0  0  0
   -2.0790   -7.3010   -2.4640 C   0  0  0  0  0  0  0  0  0  0  0  0
   -3.4040   -2.8380    0.4330 N   0  0  0  0  0  0  0  0  0  0  0  0
   -4.4340   -2.0200    1.0660 C   0  0  2  0  0  0  0  0  0  0  0  0
   -4.2210   -0.5290    0.8820 C   0  0  0  0  0  0  0  0  0  0  0  0
   -5.1200    0.1740    0.4280 O   0  0  0  0  0  0  0  0  0  0  0  0
   -4.5210   -2.3560    2.5500 C   0  0  0  0  0  0  0  0  0  0  0  0
   -4.9230   -3.7930    2.8070 C   0  0  0  0  0  0  0  0  0  0  0  0
   -4.9100   -4.1270    4.2930 C   0  0  0  0  0  0  0  0  0  0  0  0
   -5.3100   -5.5250    4.5170 N   0  0  0  0  0  0  0  0  0  0  0  0
   -4.5070   -6.5530    4.3300 C   0  0  0  0  0  0  0  0  0  0  0  0
   -3.2420   -6.3760    3.9640 N   0  0  0  0  0  4  0  0  0  0  0  0
   -4.9650   -7.7720    4.5330 N   0  0  0  0  0  0  0  0  0  0  0  0
   -3.0860   -0.1380    1.2340 N   0  0  0  0  0  0  0  0  0  0  0  0
   -2.7750    1.2690    1.1780 C   0  0  0  0  0  0  0  0  0  0  0  0
   -1.3330    1.4670    0.7250 C   0  0  0  0  0  0  0  0  0  0  0  0
   -0.6180    0.4910    0.4570 O   0  0  0  0  0  0  0  0  0  0  0  0
   -2.9600    1.9020    2.5710 C   0  0  0  0  0  0  0  0  0  0  0  0
   -4.3510    1.9130    3.1450 C   0  0  0  0  0  0  0  0  0  0  0  0
   -4.3080    2.3640    4.5960 C   0  0  0  0  0  0  0  0  0  0  0  0
   -5.2420    2.8490    2.3360 C   0  0  0  0  0  0  0  0  0  0  0  0
   -0.9770    2.5230    0.5850 O   0  0  0  0  0  0  0  0  0  0  0  0
  2  3  1  0  0  0  0
  3  9  1  0  0  0  0
  4  3  2  0  0  0  0
  5  2  1  0  0  0  0
  6  7  1  0  0  0  0
  6  5  1  0  0  0  0
  8  6  1  0  0  0  0
  9 10  1  0  0  0  0
 10 13  1  1  0  0  0
 11 10  1  0  0  0  0
 11 12  2  0  0  0  0
 13 14  1  0  0  0  0
 14 15  1  0  0  0  0
 16 14  1  0  0  0  0
 17 11  1  0  0  0  0
 18 17  1  0  0  0  0
 18 21  1  1  0  0  0
 19 18  1  0  0  0  0
 20 19  2  0  0  0  0
 21 22  1  0  0  0  0
 22 23  1  0  0  0  0
 22 24  2  0  0  0  0
 23 25  1  0  0  0  0
 24 26  1  0  0  0  0
 25 26  2  0  0  0  0
 27 33  1  0  0  0  0
 27 19  1  0  0  0  0
 28 29  1  1  0  0  0
 28 27  1  0  0  0  0
 29 34  1  0  0  0  0
 30 29  2  0  0  0  0
 31 28  1  0  0  0  0
 31 32  1  0  0  0  0
 32 33  1  0  0  0  0
 35 34  1  0  0  0  0
 35 36  1  0  0  0  0
 35 38  1  1  0  0  0
 36 42  1  0  0  0  0
 37 36  2  0  0  0  0
 39 38  1  0  0  0  0
 39 40  1  0  0  0  0
 41 39  1  0  0  0  0
 42 43  1  0  0  0  0
 43 46  1  1  0  0  0
 44 43  1  0  0  0  0
 44 53  1  0  0  0  0
 45 44  2  0  0  0  0
 46 47  1  0  0  0  0
 47 48  1  0  0  0  0
 48 49  1  0  0  0  0
 50 49  1  0  0  0  0
 50 52  1  0  0  0  0
 51 50  2  0  0  0  0
 54 53  1  0  0  0  0
 54 57  1  0  0  0  0
 56 55  2  0  0  0  0
 57 58  1  0  0  0  0
 58 59  1  0  0  0  0
 60 58  1  0  0  0  0
 61 55  1  0  0  0  0
M  END
$$$$
