_clean.pdb
 OpenBabel07302610273D

134133  0  0  1  0  0  0  0  0999 V2000
   -0.8970    2.7590    0.7130 N   0  0  0  0  0  0  0  0  0  0  0  0
   -1.4180    3.8580    0.9990 H   0  0  0  0  0  0  0  0  0  0  0  0
   -1.3010    3.1130   -0.4520 H   0  0  0  0  0  0  0  0  0  0  0  0
   -0.7240    2.8420    1.9420 H   0  0  0  0  0  0  0  0  0  0  0  0
    0.4810    3.0470    0.3460 C   0  0  0  0  0  0  0  0  0  0  0  0
    0.9830    2.5330   -0.6140 H   0  0  0  0  0  0  0  0  0  0  0  0
    1.4540    2.4210    1.3370 C   0  0  0  0  0  0  0  0  0  0  0  0
    2.5890    2.1070    0.9800 O   0  0  0  0  0  0  0  0  0  0  0  0
    0.7160    4.5440    0.2770 C   0  0  0  0  0  0  0  0  0  0  0  0
    0.6680    5.2140    1.2680 H   0  0  0  0  0  0  0  0  0  0  0  0
    1.8800    4.6880    0.0220 H   0  0  0  0  0  0  0  0  0  0  0  0
   -0.0640    5.2650   -0.8060 C   0  0  0  0  0  0  0  0  0  0  0  0
   -1.2480    5.3540   -0.9390 H   0  0  0  0  0  0  0  0  0  0  0  0
    0.1240    6.7740   -0.6790 C   0  0  0  0  0  0  0  0  0  0  0  0
   -0.4860    7.2920    0.2160 H   0  0  0  0  0  0  0  0  0  0  0  0
    1.2310    7.2190   -0.5560 H   0  0  0  0  0  0  0  0  0  0  0  0
   -0.2770    7.4210   -1.6080 H   0  0  0  0  0  0  0  0  0  0  0  0
    0.3610    4.7880   -2.1880 C   0  0  0  0  0  0  0  0  0  0  0  0
    0.0040    3.7390   -2.6470 H   0  0  0  0  0  0  0  0  0  0  0  0
    1.5270    4.8470   -2.4670 H   0  0  0  0  0  0  0  0  0  0  0  0
   -0.1090    5.4710   -3.0590 H   0  0  0  0  0  0  0  0  0  0  0  0
    1.0420    2.2740    2.5650 N   0  0  0  0  0  0  0  0  0  0  0  0
    0.9200    3.3910    2.9520 H   0  0  0  0  0  0  0  0  0  0  0  0
    1.8700    1.6400    3.5810 C   0  0  2  0  0  0  0  0  0  0  0  0
    3.0430    1.7430    3.3810 H   0  0  0  0  0  0  0  0  0  0  0  0
    1.8350    0.1250    3.4860 C   0  0  0  0  0  0  0  0  0  0  0  0
    2.7420   -0.5530    3.9660 O   0  0  0  0  0  0  0  0  0  0  0  0
    1.4520    2.0840    4.9770 C   0  0  0  0  0  0  0  0  0  0  0  0
    2.1190    1.4670    5.7570 H   0  0  0  0  0  0  0  0  0  0  0  0
    0.3200    1.8180    5.2450 H   0  0  0  0  0  0  0  0  0  0  0  0
    1.6480    3.5630    5.2990 C   0  0  0  0  0  0  0  0  0  0  0  0
    1.1860    4.5190    4.7510 H   0  0  0  0  0  0  0  0  0  0  0  0
    1.0230    3.8780    6.6560 C   0  0  0  0  0  0  0  0  0  0  0  0
    1.4090    4.8780    7.1970 H   0  0  0  0  0  0  0  0  0  0  0  0
   -0.1560    4.0960    6.6130 H   0  0  0  0  0  0  0  0  0  0  0  0
    1.1450    3.0940    7.5550 H   0  0  0  0  0  0  0  0  0  0  0  0
    3.1240    3.9210    5.2960 C   0  0  0  0  0  0  0  0  0  0  0  0
    3.8290    3.8110    4.3320 H   0  0  0  0  0  0  0  0  0  0  0  0
    3.7820    3.4290    6.1700 H   0  0  0  0  0  0  0  0  0  0  0  0
    3.3060    5.0950    5.4800 H   0  0  0  0  0  0  0  0  0  0  0  0
    0.7970   -0.3750    2.8720 N   0  0  0  0  0  0  0  0  0  0  0  0
   -0.2240    0.1250    3.1810 H   0  0  0  0  0  0  0  0  0  0  0  0
    0.6250   -1.8060    2.6890 C   0  0  2  0  0  0  0  0  0  0  0  0
    1.6200   -2.3740    3.0130 H   0  0  0  0  0  0  0  0  0  0  0  0
    0.1340   -2.0120    1.2580 C   0  0  0  0  0  0  0  0  0  0  0  0
   -1.0060   -1.6650    0.9510 O   0  0  0  0  0  0  0  0  0  0  0  0
   -0.4110   -2.3340    3.6760 C   0  0  0  0  0  0  0  0  0  0  0  0
   -0.2980   -3.5210    3.6130 H   0  0  0  0  0  0  0  0  0  0  0  0
   -1.5690   -2.1450    3.8390 H   0  0  0  0  0  0  0  0  0  0  0  0
   -0.0430   -2.1030    5.1030 C   0  0  0  0  0  0  0  0  0  0  0  0
    0.8800   -2.8800    5.7900 N   0  0  0  0  0  0  0  0  0  0  0  0
    1.4780   -3.8940    5.6250 H   0  0  0  0  0  0  0  0  0  0  0  0
   -0.4620   -1.1620    5.9960 C   0  0  0  0  0  0  0  0  0  0  0  0
   -1.4400   -0.5830    6.3410 H   0  0  0  0  0  0  0  0  0  0  0  0
    1.0050   -2.4310    7.0230 C   0  0  0  0  0  0  0  0  0  0  0  0
    1.6480   -2.7680    7.9630 H   0  0  0  0  0  0  0  0  0  0  0  0
    0.1980   -1.3880    7.1680 N   0  0  0  0  0  0  0  0  0  0  0  0
    0.9880   -2.5380    0.4100 N   0  0  0  0  0  0  0  0  0  0  0  0
    0.6680   -2.6400   -1.0120 C   0  0  2  0  0  0  0  0  0  0  0  0
    0.7660   -1.5950   -1.5800 H   0  0  0  0  0  0  0  0  0  0  0  0
   -0.7170   -3.1440   -1.3790 C   0  0  0  0  0  0  0  0  0  0  0  0
   -1.3110   -2.6570   -2.3430 O   0  0  0  0  0  0  0  0  0  0  0  0
    1.7670   -3.5710   -1.5340 C   0  0  0  0  0  0  0  0  0  0  0  0
    2.0010   -3.2680   -2.6700 H   0  0  0  0  0  0  0  0  0  0  0  0
    1.6830   -4.7580   -1.6390 H   0  0  0  0  0  0  0  0  0  0  0  0
    2.9270   -3.2690   -0.6480 C   0  0  0  0  0  0  0  0  0  0  0  0
    3.7350   -4.1540   -0.6730 H   0  0  0  0  0  0  0  0  0  0  0  0
    3.5990   -2.3610   -1.0440 H   0  0  0  0  0  0  0  0  0  0  0  0
    2.3140   -3.0850    0.7200 C   0  0  0  0  0  0  0  0  0  0  0  0
    2.3240   -4.1400    1.2830 H   0  0  0  0  0  0  0  0  0  0  0  0
    3.1760   -2.4370    1.2390 H   0  0  0  0  0  0  0  0  0  0  0  0
   -1.2510   -4.0870   -0.6430 N   0  0  0  0  0  0  0  0  0  0  0  0
   -0.5420   -4.7150    0.0740 H   0  0  0  0  0  0  0  0  0  0  0  0
   -2.5610   -4.6450   -0.9420 C   0  0  2  0  0  0  0  0  0  0  0  0
   -2.8410   -4.5700   -2.0990 H   0  0  0  0  0  0  0  0  0  0  0  0
   -3.7000   -3.7900   -0.4090 C   0  0  0  0  0  0  0  0  0  0  0  0
   -4.8470   -3.9890   -0.7910 O   0  0  0  0  0  0  0  0  0  0  0  0
   -2.6670   -6.0570   -0.3780 C   0  0  0  0  0  0  0  0  0  0  0  0
   -3.7880   -6.4390   -0.5530 H   0  0  0  0  0  0  0  0  0  0  0  0
   -2.4840   -6.0960    0.8000 H   0  0  0  0  0  0  0  0  0  0  0  0
   -1.7370   -7.0990   -0.9940 C   0  0  0  0  0  0  0  0  0  0  0  0
   -0.5560   -6.9340   -1.0350 H   0  0  0  0  0  0  0  0  0  0  0  0
   -1.8580   -8.4070   -0.2280 C   0  0  0  0  0  0  0  0  0  0  0  0
   -2.1900   -9.3570   -0.8840 H   0  0  0  0  0  0  0  0  0  0  0  0
   -0.8090   -8.7700    0.2290 H   0  0  0  0  0  0  0  0  0  0  0  0
   -2.6080   -8.5690    0.6930 H   0  0  0  0  0  0  0  0  0  0  0  0
   -2.0790   -7.3010   -2.4640 C   0  0  0  0  0  0  0  0  0  0  0  0
   -3.2150   -7.5730   -2.7350 H   0  0  0  0  0  0  0  0  0  0  0  0
   -1.7630   -6.4960   -3.2950 H   0  0  0  0  0  0  0  0  0  0  0  0
   -1.4720   -8.2330   -2.9200 H   0  0  0  0  0  0  0  0  0  0  0  0
   -3.4040   -2.8380    0.4330 N   0  0  0  0  0  0  0  0  0  0  0  0
   -2.4820   -3.1150    1.1100 H   0  0  0  0  0  0  0  0  0  0  0  0
   -4.4340   -2.0200    1.0660 C   0  0  2  0  0  0  0  0  0  0  0  0
   -5.4840   -2.1140    0.5040 H   0  0  0  0  0  0  0  0  0  0  0  0
   -4.2210   -0.5290    0.8820 C   0  0  0  0  0  0  0  0  0  0  0  0
   -5.1200    0.1740    0.4280 O   0  0  0  0  0  0  0  0  0  0  0  0
   -4.5210   -2.3560    2.5500 C   0  0  0  0  0  0  0  0  0  0  0  0
   -3.8050   -2.0760    3.4570 H   0  0  0  0  0  0  0  0  0  0  0  0
   -5.5110   -1.7550    2.8590 H   0  0  0  0  0  0  0  0  0  0  0  0
   -4.9230   -3.7930    2.8070 C   0  0  0  0  0  0  0  0  0  0  0  0
   -6.0720   -3.9270    2.4880 H   0  0  0  0  0  0  0  0  0  0  0  0
   -4.4030   -4.6830    2.2120 H   0  0  0  0  0  0  0  0  0  0  0  0
   -4.9100   -4.1270    4.2930 C   0  0  0  0  0  0  0  0  0  0  0  0
   -5.7660   -3.4810    4.8200 H   0  0  0  0  0  0  0  0  0  0  0  0
   -4.0370   -4.0120    5.0970 H   0  0  0  0  0  0  0  0  0  0  0  0
   -5.3100   -5.5250    4.5170 N   0  0  0  0  0  0  0  0  0  0  0  0
   -6.4080   -5.7370    4.9240 H   0  0  0  0  0  0  0  0  0  0  0  0
   -4.5070   -6.5530    4.3300 C   0  0  0  0  0  0  0  0  0  0  0  0
   -3.2420   -6.3760    3.9640 N   0  0  0  0  0  4  0  0  0  0  0  0
   -2.6350   -7.4030    3.9440 H   0  0  0  0  0  0  0  0  0  0  0  0
   -2.3440   -5.6080    4.0930 H   0  0  0  0  0  0  0  0  0  0  0  0
   -4.9650   -7.7720    4.5330 N   0  0  0  0  0  0  0  0  0  0  0  0
   -4.5680   -8.5250    5.3650 H   0  0  0  0  0  0  0  0  0  0  0  0
   -5.8910   -8.2710    3.9760 H   0  0  0  0  0  0  0  0  0  0  0  0
   -3.0860   -0.1380    1.2340 N   0  0  0  0  0  0  0  0  0  0  0  0
   -2.5880   -0.5840    2.2100 H   0  0  0  0  0  0  0  0  0  0  0  0
   -2.7750    1.2690    1.1780 C   0  0  0  0  0  0  0  0  0  0  0  0
   -3.3540    1.6590    0.2080 H   0  0  0  0  0  0  0  0  0  0  0  0
   -1.3330    1.4670    0.7250 C   0  0  0  0  0  0  0  0  0  0  0  0
   -0.6180    0.4910    0.4570 O   0  0  0  0  0  0  0  0  0  0  0  0
   -2.9600    1.9020    2.5710 C   0  0  0  0  0  0  0  0  0  0  0  0
   -2.2970    1.4540    3.4530 H   0  0  0  0  0  0  0  0  0  0  0  0
   -2.8990    3.0930    2.6170 H   0  0  0  0  0  0  0  0  0  0  0  0
   -4.3510    1.9130    3.1450 C   0  0  0  0  0  0  0  0  0  0  0  0
   -5.0290    0.9400    3.2770 H   0  0  0  0  0  0  0  0  0  0  0  0
   -4.3080    2.3640    4.5960 C   0  0  0  0  0  0  0  0  0  0  0  0
   -3.8670    1.5460    5.3490 H   0  0  0  0  0  0  0  0  0  0  0  0
   -3.8220    3.4190    4.8950 H   0  0  0  0  0  0  0  0  0  0  0  0
   -5.3700    2.5290    5.1370 H   0  0  0  0  0  0  0  0  0  0  0  0
   -5.2420    2.8490    2.3360 C   0  0  0  0  0  0  0  0  0  0  0  0
   -6.3930    2.6300    2.6120 H   0  0  0  0  0  0  0  0  0  0  0  0
   -5.3660    2.8440    1.1430 H   0  0  0  0  0  0  0  0  0  0  0  0
   -5.1900    4.0320    2.5390 H   0  0  0  0  0  0  0  0  0  0  0  0
   -0.9770    2.5230    0.5850 O   0  0  0  0  0  0  0  0  0  0  0  0
  1  2  1  0  0  0  0
  1  4  1  0  0  0  0
  3134  1  0  0  0  0
  5  7  1  0  0  0  0
  6  5  1  0  0  0  0
  7 22  1  0  0  0  0
  8  7  2  0  0  0  0
  9  5  1  0  0  0  0
  9 10  1  0  0  0  0
 11  9  1  0  0  0  0
 12 14  1  0  0  0  0
 12  9  1  0  0  0  0
 13 12  1  0  0  0  0
 14 16  1  0  0  0  0
 14 15  1  0  0  0  0
 17 14  1  0  0  0  0
 18 12  1  0  0  0  0
 19 18  1  0  0  0  0
 20 18  1  0  0  0  0
 21 18  1  0  0  0  0
 22 23  1  0  0  0  0
 22 24  1  0  0  0  0
 24 25  1  6  0  0  0
 24 28  1  0  0  0  0
 26 24  1  0  0  0  0
 26 27  2  0  0  0  0
 28 30  1  0  0  0  0
 28 31  1  0  0  0  0
 28 29  1  0  0  0  0
 31 33  1  0  0  0  0
 32 31  1  0  0  0  0
 33 34  1  0  0  0  0
 33 36  1  0  0  0  0
 35 33  1  0  0  0  0
 37 31  1  0  0  0  0
 37 40  1  0  0  0  0
 37 39  1  0  0  0  0
 38 37  1  0  0  0  0
 41 42  1  0  0  0  0
 41 26  1  0  0  0  0
 43 41  1  0  0  0  0
 43 44  1  1  0  0  0
 43 47  1  0  0  0  0
 45 43  1  0  0  0  0
 46 45  2  0  0  0  0
 47 49  1  0  0  0  0
 47 50  1  0  0  0  0
 48 47  1  0  0  0  0
 50 51  1  0  0  0  0
 50 53  2  0  0  0  0
 51 55  1  0  0  0  0
 52 51  1  0  0  0  0
 53 54  1  0  0  0  0
 53 57  1  0  0  0  0
 55 57  2  0  0  0  0
 55 56  1  0  0  0  0
 58 69  1  0  0  0  0
 58 45  1  0  0  0  0
 59 60  1  6  0  0  0
 59 58  1  0  0  0  0
 61 59  1  0  0  0  0
 61 72  1  0  0  0  0
 62 61  2  0  0  0  0
 63 59  1  0  0  0  0
 63 66  1  0  0  0  0
 64 63  1  0  0  0  0
 65 63  1  0  0  0  0
 66 69  1  0  0  0  0
 67 66  1  0  0  0  0
 68 66  1  0  0  0  0
 69 71  1  0  0  0  0
 69 70  1  0  0  0  0
 72 73  1  0  0  0  0
 74 75  1  6  0  0  0
 74 72  1  0  0  0  0
 74 76  1  0  0  0  0
 74 78  1  0  0  0  0
 76 91  1  0  0  0  0
 77 76  2  0  0  0  0
 78 80  1  0  0  0  0
 79 78  1  0  0  0  0
 81 78  1  0  0  0  0
 81 83  1  0  0  0  0
 82 81  1  0  0  0  0
 83 85  1  0  0  0  0
 83 86  1  0  0  0  0
 84 83  1  0  0  0  0
 87 81  1  0  0  0  0
 88 87  1  0  0  0  0
 89 87  1  0  0  0  0
 90 87  1  0  0  0  0
 91 93  1  0  0  0  0
 91 92  1  0  0  0  0
 93 94  1  6  0  0  0
 93 97  1  0  0  0  0
 95 93  1  0  0  0  0
 95115  1  0  0  0  0
 96 95  2  0  0  0  0
 97100  1  0  0  0  0
 97 99  1  0  0  0  0
 97 98  1  0  0  0  0
100103  1  0  0  0  0
101100  1  0  0  0  0
102100  1  0  0  0  0
103106  1  0  0  0  0
103104  1  0  0  0  0
103105  1  0  0  0  0
106107  1  0  0  0  0
108106  1  0  0  0  0
108112  1  0  0  0  0
109111  1  0  0  0  0
109108  2  0  0  0  0
110109  1  0  0  0  0
112113  1  0  0  0  0
114112  1  0  0  0  0
115116  1  0  0  0  0
117115  1  0  0  0  0
117121  1  0  0  0  0
118117  1  0  0  0  0
120119  2  0  0  0  0
121123  1  0  0  0  0
121124  1  0  0  0  0
121122  1  0  0  0  0
124125  1  0  0  0  0
124126  1  0  0  0  0
126128  1  0  0  0  0
126129  1  0  0  0  0
126127  1  0  0  0  0
130133  1  0  0  0  0
130131  1  0  0  0  0
130124  1  0  0  0  0
132130  1  0  0  0  0
134119  1  0  0  0  0
M  END
$$$$
