/mnt/hpc/home/25menglei/25wenshaohua/MD/yzy/docking/dc/peptides/pdb/alllhrc.pdb
 OpenBabel07292620093D

124124  0  0  1  0  0  0  0  0999 V2000
   -3.6290   -5.2170    1.7070 N   0  3  0  0  0  0  0  0  0  0  0  0
   -4.2300   -3.9010    1.9120 C   0  0  2  0  0  0  0  0  0  0  0  0
   -3.1690   -2.8160    2.0100 C   0  0  0  0  0  0  0  0  0  0  0  0
   -3.0590   -1.9500    1.1350 O   0  0  0  0  0  0  0  0  0  0  0  0
   -5.0840   -3.9120    3.1710 C   0  0  0  0  0  0  0  0  0  0  0  0
   -2.3730   -2.8410    3.0600 N   0  0  0  0  0  0  0  0  0  0  0  0
   -1.3350   -1.8440    3.2850 C   0  0  2  0  0  0  0  0  0  0  0  0
   -0.3450   -1.8160    2.1330 C   0  0  0  0  0  0  0  0  0  0  0  0
    0.2090   -0.7750    1.8010 O   0  0  0  0  0  0  0  0  0  0  0  0
   -0.5940   -2.1330    4.5900 C   0  0  0  0  0  0  0  0  0  0  0  0
   -1.4430   -2.0030    5.8410 C   0  0  0  0  0  0  0  0  0  0  0  0
   -0.6280   -2.4100    7.0630 C   0  0  0  0  0  0  0  0  0  0  0  0
   -1.9510   -0.5820    6.0010 C   0  0  0  0  0  0  0  0  0  0  0  0
   -0.1390   -2.9350    1.5180 N   0  0  0  0  0  0  0  0  0  0  0  0
    0.7610   -3.0560    0.3830 C   0  0  2  0  0  0  0  0  0  0  0  0
    0.3370   -2.1270   -0.7370 C   0  0  0  0  0  0  0  0  0  0  0  0
    1.1580   -1.4250   -1.3300 O   0  0  0  0  0  0  0  0  0  0  0  0
    0.7820   -4.4960   -0.1210 C   0  0  0  0  0  0  0  0  0  0  0  0
    1.2640   -5.5060    0.9060 C   0  0  0  0  0  0  0  0  0  0  0  0
    1.1830   -6.9140    0.3250 C   0  0  0  0  0  0  0  0  0  0  0  0
    2.6880   -5.2000    1.3410 C   0  0  0  0  0  0  0  0  0  0  0  0
   -0.9440   -2.1040   -1.0340 N   0  0  0  0  0  0  0  0  0  0  0  0
   -1.4980   -1.2700   -2.0850 C   0  0  2  0  0  0  0  0  0  0  0  0
   -1.7270    0.1470   -1.6020 C   0  0  0  0  0  0  0  0  0  0  0  0
   -1.8950    1.0670   -2.4000 O   0  0  0  0  0  0  0  0  0  0  0  0
   -2.8110   -1.8560   -2.5800 C   0  0  0  0  0  0  0  0  0  0  0  0
   -2.6950   -3.2740   -3.1100 C   0  0  0  0  0  0  0  0  0  0  0  0
   -4.0580   -3.7930   -3.5170 C   0  0  0  0  0  0  0  0  0  0  0  0
   -1.7300   -3.3380   -4.2780 C   0  0  0  0  0  0  0  0  0  0  0  0
   -1.7140    0.3160   -0.3100 N   0  0  0  0  0  0  0  0  0  0  0  0
   -1.9860    1.6180    0.2830 C   0  0  2  0  0  0  0  0  0  0  0  0
   -1.0070    2.6790   -0.1860 C   0  0  0  0  0  0  0  0  0  0  0  0
   -1.3220    3.8580   -0.2200 O   0  0  0  0  0  0  0  0  0  0  0  0
   -1.9360    1.5200    1.7970 C   0  0  0  0  0  0  0  0  0  0  0  0
   -2.1740    2.8290    2.4730 C   0  0  0  0  0  0  0  0  0  0  0  0
   -3.3280    3.5530    2.3250 N   0  0  0  0  0  0  0  0  0  0  0  0
   -1.3820    3.5640    3.3000 C   0  0  0  0  0  0  0  0  0  0  0  0
   -3.2220    4.6680    3.0330 C   0  0  0  0  0  0  0  0  0  0  0  0
   -2.0670    4.6970    3.6350 N   0  0  0  0  0  0  0  0  0  0  0  0
    0.1700    2.2750   -0.5590 N   0  0  0  0  0  0  0  0  0  0  0  0
    1.1880    3.2030   -1.0140 C   0  0  2  0  0  0  0  0  0  0  0  0
    0.8550    3.7870   -2.3750 C   0  0  0  0  0  0  0  0  0  0  0  0
    1.5930    4.6250   -2.8940 O   0  0  0  0  0  0  0  0  0  0  0  0
    2.5500    2.5210   -1.0780 C   0  0  0  0  0  0  0  0  0  0  0  0
    2.6270    1.4630   -2.1550 C   0  0  0  0  0  0  0  0  0  0  0  0
    4.0190    0.8690   -2.2320 C   0  0  0  0  0  0  0  0  0  0  0  0
    4.1460   -0.0600   -3.3320 N   0  0  0  0  0  0  0  0  0  0  0  0
    5.2890   -0.6510   -3.6870 C   0  0  0  0  0  0  0  0  0  0  0  0
    6.3920   -0.3910   -3.0160 N   0  0  0  0  0  0  0  0  0  0  0  0
    5.3130   -1.4910   -4.7100 N   0  3  0  0  0  0  0  0  0  0  0  0
   -0.2400    3.3300   -2.9500 N   0  0  0  0  0  0  0  0  0  0  0  0
   -0.6680    3.7860   -4.2630 C   0  0  2  0  0  0  0  0  0  0  0  0
   -1.8420    4.7350   -4.1430 C   0  0  0  0  0  0  0  0  0  0  0  0
   -1.9070    5.7000   -4.9040 O   0  0  0  0  0  0  0  0  0  0  0  0
   -1.0620    2.6020   -5.1500 C   0  0  0  0  0  0  0  0  0  0  0  0
    0.3120    1.4890   -5.4880 S   0  0  0  0  0  0  0  0  0  0  0  0
   -2.6850    4.5300   -3.2910 O   0  5  0  0  0  0  0  0  0  0  0  0
   -3.0583   -5.2022    0.8618 H   0  0  0  0  0  0  0  0  0  0  0  0
   -4.3657   -5.9155    1.6076 H   0  0  0  0  0  0  0  0  0  0  0  0
   -3.0435   -5.4520    2.5085 H   0  0  0  0  0  0  0  0  0  0  0  0
   -3.4626   -5.0665    2.7020 H   0  0  0  0  0  0  0  0  0  0  0  0
   -4.8468   -3.6821    1.0655 H   0  0  0  0  0  0  0  0  0  0  0  0
   -4.4679   -4.1308    4.0180 H   0  0  0  0  0  0  0  0  0  0  0  0
   -5.8439   -4.6598    3.0800 H   0  0  0  0  0  0  0  0  0  0  0  0
   -5.5408   -2.9531    3.3005 H   0  0  0  0  0  0  0  0  0  0  0  0
   -2.4845   -3.5633    3.7196 H   0  0  0  0  0  0  0  0  0  0  0  0
   -1.8094   -0.8872    3.3508 H   0  0  0  0  0  0  0  0  0  0  0  0
    0.2233   -1.4469    4.6686 H   0  0  0  0  0  0  0  0  0  0  0  0
   -0.2810   -3.1550    4.5409 H   0  0  0  0  0  0  0  0  0  0  0  0
   -2.2882   -2.6526    5.7489 H   0  0  0  0  0  0  0  0  0  0  0  0
    0.2185   -1.7626    7.1589 H   0  0  0  0  0  0  0  0  0  0  0  0
   -0.2936   -3.4199    6.9485 H   0  0  0  0  0  0  0  0  0  0  0  0
   -1.2368   -2.3332    7.9395 H   0  0  0  0  0  0  0  0  0  0  0  0
   -1.1200    0.0854    6.0950 H   0  0  0  0  0  0  0  0  0  0  0  0
   -2.5609   -0.5179    6.8778 H   0  0  0  0  0  0  0  0  0  0  0  0
   -2.5303   -0.3116    5.1430 H   0  0  0  0  0  0  0  0  0  0  0  0
   -0.6120   -3.7393    1.8321 H   0  0  0  0  0  0  0  0  0  0  0  0
    1.7442   -2.7810    0.7034 H   0  0  0  0  0  0  0  0  0  0  0  0
    1.4306   -4.5451   -0.9706 H   0  0  0  0  0  0  0  0  0  0  0  0
   -0.2290   -4.7548   -0.3571 H   0  0  0  0  0  0  0  0  0  0  0  0
    0.6316   -5.4425    1.7668 H   0  0  0  0  0  0  0  0  0  0  0  0
    1.8144   -6.9813   -0.5363 H   0  0  0  0  0  0  0  0  0  0  0  0
    0.1726   -7.1263    0.0440 H   0  0  0  0  0  0  0  0  0  0  0  0
    1.5052   -7.6221    1.0597 H   0  0  0  0  0  0  0  0  0  0  0  0
    3.3398   -5.2578    0.4944 H   0  0  0  0  0  0  0  0  0  0  0  0
    2.9966   -5.9118    2.0779 H   0  0  0  0  0  0  0  0  0  0  0  0
    2.7300   -4.2150    1.7569 H   0  0  0  0  0  0  0  0  0  0  0  0
   -1.5555   -2.6791   -0.5197 H   0  0  0  0  0  0  0  0  0  0  0  0
   -0.7903   -1.2429   -2.8871 H   0  0  0  0  0  0  0  0  0  0  0  0
   -3.5066   -1.8568   -1.7669 H   0  0  0  0  0  0  0  0  0  0  0  0
   -3.1329   -1.2458   -3.3979 H   0  0  0  0  0  0  0  0  0  0  0  0
   -2.3098   -3.8956   -2.3289 H   0  0  0  0  0  0  0  0  0  0  0  0
   -4.4546   -3.1792   -4.2986 H   0  0  0  0  0  0  0  0  0  0  0  0
   -4.7162   -3.7663   -2.6738 H   0  0  0  0  0  0  0  0  0  0  0  0
   -3.9664   -4.8002   -3.8662 H   0  0  0  0  0  0  0  0  0  0  0  0
   -2.0932   -2.7231   -5.0748 H   0  0  0  0  0  0  0  0  0  0  0  0
   -1.6472   -4.3494   -4.6173 H   0  0  0  0  0  0  0  0  0  0  0  0
   -0.7687   -2.9867   -3.9661 H   0  0  0  0  0  0  0  0  0  0  0  0
   -1.5168   -0.4503    0.2758 H   0  0  0  0  0  0  0  0  0  0  0  0
   -2.9644    1.9118   -0.0352 H   0  0  0  0  0  0  0  0  0  0  0  0
   -0.9707    1.1584    2.0838 H   0  0  0  0  0  0  0  0  0  0  0  0
   -2.7174    0.8553    2.1012 H   0  0  0  0  0  0  0  0  0  0  0  0
   -4.1062    3.2887    1.7829 H   0  0  0  0  0  0  0  0  0  0  0  0
   -0.4333    3.3106    3.6174 H   0  0  0  0  0  0  0  0  0  0  0  0
   -3.9446    5.4019    3.0977 H   0  0  0  0  0  0  0  0  0  0  0  0
    0.3767    1.3128   -0.5322 H   0  0  0  0  0  0  0  0  0  0  0  0
    1.2195    4.0020   -0.3030 H   0  0  0  0  0  0  0  0  0  0  0  0
    3.2949    3.2635   -1.2747 H   0  0  0  0  0  0  0  0  0  0  0  0
    2.7109    2.0354   -0.1382 H   0  0  0  0  0  0  0  0  0  0  0  0
    1.9263    0.6855   -1.9328 H   0  0  0  0  0  0  0  0  0  0  0  0
    2.3966    1.9165   -3.0964 H   0  0  0  0  0  0  0  0  0  0  0  0
    4.7266    1.6607   -2.3638 H   0  0  0  0  0  0  0  0  0  0  0  0
    4.2037    0.3355   -1.3231 H   0  0  0  0  0  0  0  0  0  0  0  0
    3.3375   -0.2704   -3.8529 H   0  0  0  0  0  0  0  0  0  0  0  0
    7.2381   -0.8238   -3.2730 H   0  0  0  0  0  0  0  0  0  0  0  0
    6.3704    0.2361   -2.2574 H   0  0  0  0  0  0  0  0  0  0  0  0
    4.4863   -1.6827   -5.2090 H   0  0  0  0  0  0  0  0  0  0  0  0
    6.1576   -1.9240   -4.9717 H   0  0  0  0  0  0  0  0  0  0  0  0
    5.5270   -2.3053   -4.1998 H   0  0  0  0  0  0  0  0  0  0  0  0
   -0.7841    2.6601   -2.4764 H   0  0  0  0  0  0  0  0  0  0  0  0
    0.1560    4.2997   -4.7124 H   0  0  0  0  0  0  0  0  0  0  0  0
   -1.8352    2.0497   -4.6580 H   0  0  0  0  0  0  0  0  0  0  0  0
   -1.3902    2.9996   -6.0876 H   0  0  0  0  0  0  0  0  0  0  0  0
    0.7632    0.9580   -4.3200 H   0  0  0  0  0  0  0  0  0  0  0  0
  1  2  1  0  0  0  0
  1 58  1  0  0  0  0
  1 59  1  0  0  0  0
  1 60  1  0  0  0  0
  1 61  1  0  0  0  0
  2  3  1  0  0  0  0
  2  5  1  0  0  0  0
  2 62  1  6  0  0  0
  3  6  1  0  0  0  0
  4  3  2  0  0  0  0
  5 63  1  0  0  0  0
  5 64  1  0  0  0  0
  5 65  1  0  0  0  0
  6  7  1  0  0  0  0
  6 66  1  0  0  0  0
  7 10  1  0  0  0  0
  7 67  1  1  0  0  0
  8  7  1  0  0  0  0
  9  8  2  0  0  0  0
 10 11  1  0  0  0  0
 10 68  1  0  0  0  0
 10 69  1  0  0  0  0
 11 13  1  0  0  0  0
 11 12  1  0  0  0  0
 11 70  1  0  0  0  0
 12 71  1  0  0  0  0
 12 72  1  0  0  0  0
 12 73  1  0  0  0  0
 13 74  1  0  0  0  0
 13 75  1  0  0  0  0
 13 76  1  0  0  0  0
 14  8  1  0  0  0  0
 14 77  1  0  0  0  0
 15 14  1  0  0  0  0
 15 78  1  1  0  0  0
 16 15  1  0  0  0  0
 17 16  2  0  0  0  0
 18 15  1  0  0  0  0
 18 19  1  0  0  0  0
 18 79  1  0  0  0  0
 18 80  1  0  0  0  0
 19 21  1  0  0  0  0
 19 81  1  0  0  0  0
 20 19  1  0  0  0  0
 20 82  1  0  0  0  0
 20 83  1  0  0  0  0
 20 84  1  0  0  0  0
 21 85  1  0  0  0  0
 21 86  1  0  0  0  0
 21 87  1  0  0  0  0
 22 16  1  0  0  0  0
 22 88  1  0  0  0  0
 23 24  1  0  0  0  0
 23 22  1  0  0  0  0
 23 89  1  6  0  0  0
 24 30  1  0  0  0  0
 25 24  2  0  0  0  0
 26 23  1  0  0  0  0
 26 90  1  0  0  0  0
 26 91  1  0  0  0  0
 27 26  1  0  0  0  0
 27 92  1  0  0  0  0
 28 27  1  0  0  0  0
 28 93  1  0  0  0  0
 28 94  1  0  0  0  0
 28 95  1  0  0  0  0
 29 27  1  0  0  0  0
 29 96  1  0  0  0  0
 29 97  1  0  0  0  0
 29 98  1  0  0  0  0
 30 31  1  0  0  0  0
 30 99  1  0  0  0  0
 31 34  1  0  0  0  0
 31100  1  6  0  0  0
 32 31  1  0  0  0  0
 33 32  2  0  0  0  0
 34 35  1  0  0  0  0
 34101  1  0  0  0  0
 34102  1  0  0  0  0
 35 37  2  0  0  0  0
 36 35  1  0  0  0  0
 36 38  1  0  0  0  0
 36103  1  0  0  0  0
 37 39  1  0  0  0  0
 37104  1  0  0  0  0
 38 39  2  0  0  0  0
 38105  1  0  0  0  0
 40 32  1  0  0  0  0
 40106  1  0  0  0  0
 41 40  1  0  0  0  0
 41107  1  1  0  0  0
 42 41  1  0  0  0  0
 43 42  2  0  0  0  0
 44 41  1  0  0  0  0
 44108  1  0  0  0  0
 44109  1  0  0  0  0
 45 44  1  0  0  0  0
 45110  1  0  0  0  0
 45111  1  0  0  0  0
 46 45  1  0  0  0  0
 46112  1  0  0  0  0
 46113  1  0  0  0  0
 47 46  1  0  0  0  0
 47114  1  0  0  0  0
 48 47  1  0  0  0  0
 48 49  1  0  0  0  0
 49115  1  0  0  0  0
 49116  1  0  0  0  0
 50 48  2  0  0  0  0
 50117  1  0  0  0  0
 50118  1  0  0  0  0
 50119  1  0  0  0  0
 51 42  1  0  0  0  0
 51120  1  0  0  0  0
 52 53  1  0  0  0  0
 52 51  1  0  0  0  0
 52121  1  6  0  0  0
 53 57  1  0  0  0  0
 54 53  2  0  0  0  0
 55 52  1  0  0  0  0
 55122  1  0  0  0  0
 55123  1  0  0  0  0
 56 55  1  0  0  0  0
 56124  1  0  0  0  0
M  CHG  3   1   1  50   1  57  -1
M  END
>  <REMARK>
   1 CREATED WITH OPENMM 8.5.2, 2026-07-29

$$$$
