/mnt/hpc/home/25menglei/25wenshaohua/MD/yzy/docking/dc/peptides/pdb/fclhlqlr.pdb
 OpenBabel07292620093D

153154  0  0  1  0  0  0  0  0999 V2000
   -3.5240    1.3010    7.9150 N   0  3  0  0  0  0  0  0  0  0  0  0
   -2.1780    0.7630    8.1950 C   0  0  2  0  0  0  0  0  0  0  0  0
   -1.1380    1.1220    7.1310 C   0  0  0  0  0  0  0  0  0  0  0  0
    0.0300    0.7460    7.2600 O   0  0  0  0  0  0  0  0  0  0  0  0
   -2.2330   -0.7420    8.3930 C   0  0  0  0  0  0  0  0  0  0  0  0
   -3.1030   -1.4320    7.3880 C   0  0  0  0  0  0  0  0  0  0  0  0
   -2.6300   -1.7010    6.1160 C   0  0  0  0  0  0  0  0  0  0  0  0
   -4.4010   -1.7790    7.7180 C   0  0  0  0  0  0  0  0  0  0  0  0
   -3.4400   -2.3160    5.1940 C   0  0  0  0  0  0  0  0  0  0  0  0
   -5.2200   -2.3930    6.7880 C   0  0  0  0  0  0  0  0  0  0  0  0
   -4.7330   -2.6590    5.5260 C   0  0  0  0  0  0  0  0  0  0  0  0
   -1.5540    1.8610    6.1040 N   0  0  0  0  0  0  0  0  0  0  0  0
   -0.6640    2.3880    5.0580 C   0  0  2  0  0  0  0  0  0  0  0  0
    0.1860    1.3290    4.3500 C   0  0  0  0  0  0  0  0  0  0  0  0
    1.4060    1.4410    4.3010 O   0  0  0  0  0  0  0  0  0  0  0  0
    0.2070    3.4820    5.6610 C   0  0  0  0  0  0  0  0  0  0  0  0
   -0.6710    4.4090    6.9390 S   0  0  0  0  0  0  0  0  0  0  0  0
   -0.4340    0.3420    3.7720 N   0  0  0  0  0  0  0  0  0  0  0  0
    0.2870   -0.6780    3.0080 C   0  0  2  0  0  0  0  0  0  0  0  0
    0.5720   -0.1910    1.5780 C   0  0  0  0  0  0  0  0  0  0  0  0
    1.4040   -0.7550    0.8760 O   0  0  0  0  0  0  0  0  0  0  0  0
   -0.4910   -1.9980    3.0090 C   0  0  0  0  0  0  0  0  0  0  0  0
   -1.8990   -1.9670    2.4010 C   0  0  0  0  0  0  0  0  0  0  0  0
   -1.8780   -1.7220    0.8990 C   0  0  0  0  0  0  0  0  0  0  0  0
   -2.5890   -3.2850    2.6820 C   0  0  0  0  0  0  0  0  0  0  0  0
   -0.1040    0.8750    1.1680 N   0  0  0  0  0  0  0  0  0  0  0  0
    0.0180    1.4500   -0.1740 C   0  0  2  0  0  0  0  0  0  0  0  0
    1.3240    2.2230   -0.3400 C   0  0  0  0  0  0  0  0  0  0  0  0
    1.8870    2.2630   -1.4310 O   0  0  0  0  0  0  0  0  0  0  0  0
   -1.1800    2.3690   -0.4660 C   0  0  0  0  0  0  0  0  0  0  0  0
   -2.3960    2.0810    0.3580 C   0  0  2  0  0  0  0  0  0  0  0  0
   -3.0280    3.0320    1.1220 N   0  0  0  0  0  0  0  0  0  0  0  0
   -3.0830    0.9240    0.5290 C   0  0  0  0  0  0  0  0  0  0  0  0
   -4.0610    2.4570    1.7260 C   0  0  0  0  0  0  0  0  0  0  0  0
   -4.1130    1.1780    1.3990 N   0  0  0  0  0  0  0  0  0  0  0  0
    1.7770    2.8100    0.7210 N   0  0  0  0  0  0  0  0  0  0  0  0
    3.0130    3.5890    0.7050 C   0  0  2  0  0  0  0  0  0  0  0  0
    4.2210    2.7320    0.3330 C   0  0  0  0  0  0  0  0  0  0  0  0
    5.1570    3.2080   -0.2980 O   0  0  0  0  0  0  0  0  0  0  0  0
    3.2210    4.2440    2.0770 C   0  0  0  0  0  0  0  0  0  0  0  0
    2.1520    5.2720    2.4680 C   0  0  0  0  0  0  0  0  0  0  0  0
    2.2910    5.6440    3.9330 C   0  0  0  0  0  0  0  0  0  0  0  0
    2.2670    6.5190    1.6050 C   0  0  0  0  0  0  0  0  0  0  0  0
    4.2110    1.5200    0.7250 N   0  0  0  0  0  0  0  0  0  0  0  0
    5.2800    0.5730    0.4090 C   0  0  2  0  0  0  0  0  0  0  0  0
    5.3190    0.2560   -1.0850 C   0  0  0  0  0  0  0  0  0  0  0  0
    6.3960    0.0320   -1.6450 O   0  0  0  0  0  0  0  0  0  0  0  0
    5.0910   -0.7110    1.2190 C   0  0  0  0  0  0  0  0  0  0  0  0
    5.2810   -0.5110    2.7050 C   0  0  0  0  0  0  0  0  0  0  0  0
    5.0980   -1.7990    3.4690 C   0  0  0  0  0  0  0  0  0  0  0  0
    4.0070   -2.1320    3.8850 O   0  0  0  0  0  0  0  0  0  0  0  0
    6.1810   -2.5460    3.6450 N   0  0  0  0  0  0  0  0  0  0  0  0
    4.1680    0.2810   -1.7100 N   0  0  0  0  0  0  0  0  0  0  0  0
    4.0450    0.0240   -3.1400 C   0  0  2  0  0  0  0  0  0  0  0  0
    4.5390    1.2020   -3.9740 C   0  0  0  0  0  0  0  0  0  0  0  0
    5.3530    1.0230   -4.8760 O   0  0  0  0  0  0  0  0  0  0  0  0
    2.5790   -0.2910   -3.4590 C   0  0  0  0  0  0  0  0  0  0  0  0
    2.3660   -1.0190   -4.7630 C   0  0  0  0  0  0  0  0  0  0  0  0
    2.4780   -2.5170   -4.5460 C   0  0  0  0  0  0  0  0  0  0  0  0
    1.0170   -0.6920   -5.3460 C   0  0  0  0  0  0  0  0  0  0  0  0
    4.0030    2.3930   -3.6800 N   0  0  0  0  0  0  0  0  0  0  0  0
    4.3380    3.6440   -4.3680 C   0  0  2  0  0  0  0  0  0  0  0  0
    4.0570    3.5990   -5.8790 C   0  0  0  0  0  0  0  0  0  0  0  0
    3.7770    4.6530   -6.4530 O   0  5  0  0  0  0  0  0  0  0  0  0
    5.7950    4.0190   -4.1230 C   0  0  0  0  0  0  0  0  0  0  0  0
    6.0270    4.5080   -2.7200 C   0  0  0  0  0  0  0  0  0  0  0  0
    7.4430    4.9890   -2.5280 C   0  0  0  0  0  0  0  0  0  0  0  0
    7.6170    6.2790   -3.1780 N   0  0  0  0  0  0  0  0  0  0  0  0
    8.7340    6.9900   -3.1090 C   0  0  0  0  0  0  0  0  0  0  0  0
    9.7710    6.5490   -2.4230 N   0  0  0  0  0  0  0  0  0  0  0  0
    8.8070    8.1420   -3.7320 N   0  3  0  0  0  0  0  0  0  0  0  0
    4.1180    2.5500   -6.4680 O   0  0  0  0  0  0  0  0  0  0  0  0
   -3.4662    2.3111    7.7853 H   0  0  0  0  0  0  0  0  0  0  0  0
   -4.1428    1.0937    8.6989 H   0  0  0  0  0  0  0  0  0  0  0  0
   -3.8929    0.8699    7.0674 H   0  0  0  0  0  0  0  0  0  0  0  0
   -3.7801    0.5810    8.5906 H   0  0  0  0  0  0  0  0  0  0  0  0
   -1.8558    1.2333    9.1005 H   0  0  0  0  0  0  0  0  0  0  0  0
   -1.2405   -1.1334    8.3110 H   0  0  0  0  0  0  0  0  0  0  0  0
   -2.6545   -0.9229    9.3597 H   0  0  0  0  0  0  0  0  0  0  0  0
   -1.6654   -1.4385    5.8596 H   0  0  0  0  0  0  0  0  0  0  0  0
   -4.7604   -1.5783    8.6643 H   0  0  0  0  0  0  0  0  0  0  0  0
   -3.0796   -2.5222    4.2492 H   0  0  0  0  0  0  0  0  0  0  0  0
   -6.1880   -2.6500    7.0368 H   0  0  0  0  0  0  0  0  0  0  0  0
   -5.3389   -3.1167    4.8272 H   0  0  0  0  0  0  0  0  0  0  0  0
   -2.5147    2.0669    6.0411 H   0  0  0  0  0  0  0  0  0  0  0  0
   -1.2892    2.7849    4.2857 H   0  0  0  0  0  0  0  0  0  0  0  0
    0.5027    4.1567    4.8849 H   0  0  0  0  0  0  0  0  0  0  0  0
    1.0592    3.0183    6.1122 H   0  0  0  0  0  0  0  0  0  0  0  0
   -1.7619    5.0109    6.3938 H   0  0  0  0  0  0  0  0  0  0  0  0
   -1.4134    0.2793    3.8503 H   0  0  0  0  0  0  0  0  0  0  0  0
    1.2308   -0.8540    3.4804 H   0  0  0  0  0  0  0  0  0  0  0  0
    0.0839   -2.7139    2.4596 H   0  0  0  0  0  0  0  0  0  0  0  0
   -0.6353   -2.2391    4.0414 H   0  0  0  0  0  0  0  0  0  0  0  0
   -2.4290   -1.1542    2.8520 H   0  0  0  0  0  0  0  0  0  0  0  0
   -1.3535   -2.5192    0.4149 H   0  0  0  0  0  0  0  0  0  0  0  0
   -1.3841   -0.7948    0.6957 H   0  0  0  0  0  0  0  0  0  0  0  0
   -2.8816   -1.6798    0.5304 H   0  0  0  0  0  0  0  0  0  0  0  0
   -2.0406   -4.0800    2.2214 H   0  0  0  0  0  0  0  0  0  0  0  0
   -3.5821   -3.2596    2.2844 H   0  0  0  0  0  0  0  0  0  0  0  0
   -2.6320   -3.4469    3.7388 H   0  0  0  0  0  0  0  0  0  0  0  0
   -0.7230    1.3040    1.8021 H   0  0  0  0  0  0  0  0  0  0  0  0
    0.0257    0.6419   -0.8753 H   0  0  0  0  0  0  0  0  0  0  0  0
   -1.4415    2.2601   -1.4978 H   0  0  0  0  0  0  0  0  0  0  0  0
   -0.8705    3.3624   -0.2165 H   0  0  0  0  0  0  0  0  0  0  0  0
   -1.5922    1.9161   -0.3287 H   0  0  0  0  0  0  0  0  0  0  0  0
   -2.7612    3.9759    1.2068 H   0  0  0  0  0  0  0  0  0  0  0  0
   -2.4381    0.1735    0.9362 H   0  0  0  0  0  0  0  0  0  0  0  0
   -3.4606    0.5692   -0.4072 H   0  0  0  0  0  0  0  0  0  0  0  0
   -4.7232    2.9366    2.3557 H   0  0  0  0  0  0  0  0  0  0  0  0
    1.2740    2.7292    1.5634 H   0  0  0  0  0  0  0  0  0  0  0  0
    2.9215    4.3463   -0.0454 H   0  0  0  0  0  0  0  0  0  0  0  0
    4.1704    4.7375    2.0697 H   0  0  0  0  0  0  0  0  0  0  0  0
    3.1598    3.4566    2.7989 H   0  0  0  0  0  0  0  0  0  0  0  0
    1.1896    4.8323    2.3090 H   0  0  0  0  0  0  0  0  0  0  0  0
    3.2518    6.0846    4.0995 H   0  0  0  0  0  0  0  0  0  0  0  0
    2.1925    4.7650    4.5351 H   0  0  0  0  0  0  0  0  0  0  0  0
    1.5267    6.3447    4.1971 H   0  0  0  0  0  0  0  0  0  0  0  0
    3.2261    6.9691    1.7546 H   0  0  0  0  0  0  0  0  0  0  0  0
    1.5004    7.2137    1.8782 H   0  0  0  0  0  0  0  0  0  0  0  0
    2.1553    6.2515    0.5750 H   0  0  0  0  0  0  0  0  0  0  0  0
    3.4496    1.2067    1.2648 H   0  0  0  0  0  0  0  0  0  0  0  0
    6.2146    1.0233    0.6710 H   0  0  0  0  0  0  0  0  0  0  0  0
    5.8021   -1.4349    0.8796 H   0  0  0  0  0  0  0  0  0  0  0  0
    4.0829   -1.0365    1.0683 H   0  0  0  0  0  0  0  0  0  0  0  0
    4.5647    0.2035    3.0532 H   0  0  0  0  0  0  0  0  0  0  0  0
    6.2797   -0.1642    2.8700 H   0  0  0  0  0  0  0  0  0  0  0  0
    7.0497   -2.2440    3.2936 H   0  0  0  0  0  0  0  0  0  0  0  0
    6.1156   -3.4020    4.1269 H   0  0  0  0  0  0  0  0  0  0  0  0
    3.3539    0.4812   -1.1938 H   0  0  0  0  0  0  0  0  0  0  0  0
    4.6620   -0.8124   -3.3943 H   0  0  0  0  0  0  0  0  0  0  0  0
    2.1880   -0.8980   -2.6694 H   0  0  0  0  0  0  0  0  0  0  0  0
    2.0779    0.6500   -3.5500 H   0  0  0  0  0  0  0  0  0  0  0  0
    3.1213   -0.7005   -5.4507 H   0  0  0  0  0  0  0  0  0  0  0  0
    1.7226   -2.8352   -3.8582 H   0  0  0  0  0  0  0  0  0  0  0  0
    3.4436   -2.7484   -4.1474 H   0  0  0  0  0  0  0  0  0  0  0  0
    2.3467   -3.0234   -5.4794 H   0  0  0  0  0  0  0  0  0  0  0  0
    0.2503   -1.0051   -4.6685 H   0  0  0  0  0  0  0  0  0  0  0  0
    0.8986   -1.2021   -6.2791 H   0  0  0  0  0  0  0  0  0  0  0  0
    0.9434    0.3636   -5.5047 H   0  0  0  0  0  0  0  0  0  0  0  0
    3.3397    2.4316   -2.9535 H   0  0  0  0  0  0  0  0  0  0  0  0
    3.6968    4.3931   -3.9526 H   0  0  0  0  0  0  0  0  0  0  0  0
    6.0715    4.7931   -4.8080 H   0  0  0  0  0  0  0  0  0  0  0  0
    6.3892    3.1409   -4.2675 H   0  0  0  0  0  0  0  0  0  0  0  0
    5.8366    3.7068   -2.0369 H   0  0  0  0  0  0  0  0  0  0  0  0
    5.3664    5.3298   -2.5380 H   0  0  0  0  0  0  0  0  0  0  0  0
    7.6460    5.0879   -1.4821 H   0  0  0  0  0  0  0  0  0  0  0  0
    8.1186    4.2811   -2.9607 H   0  0  0  0  0  0  0  0  0  0  0  0
    6.8644    6.6438   -3.6973 H   0  0  0  0  0  0  0  0  0  0  0  0
   10.5956    7.0850   -2.3783 H   0  0  0  0  0  0  0  0  0  0  0  0
    9.7203    5.6839   -1.9557 H   0  0  0  0  0  0  0  0  0  0  0  0
    8.0350    8.4741   -4.2448 H   0  0  0  0  0  0  0  0  0  0  0  0
    9.6338    8.6746   -3.6868 H   0  0  0  0  0  0  0  0  0  0  0  0
    9.4524    7.5097   -4.1229 H   0  0  0  0  0  0  0  0  0  0  0  0
  1  2  1  0  0  0  0
  1 73  1  0  0  0  0
  1 74  1  0  0  0  0
  1 75  1  0  0  0  0
  1 76  1  0  0  0  0
  2  5  1  0  0  0  0
  2 77  1  1  0  0  0
  3  4  2  0  0  0  0
  3  2  1  0  0  0  0
  5 78  1  0  0  0  0
  5 79  1  0  0  0  0
  6  8  1  0  0  0  0
  6  5  1  0  0  0  0
  7  6  2  0  0  0  0
  7 80  1  0  0  0  0
  8 81  1  0  0  0  0
  9 11  2  0  0  0  0
  9  7  1  0  0  0  0
  9 82  1  0  0  0  0
 10  8  2  0  0  0  0
 10 83  1  0  0  0  0
 11 10  1  0  0  0  0
 11 84  1  0  0  0  0
 12  3  1  0  0  0  0
 12 85  1  0  0  0  0
 13 16  1  0  0  0  0
 13 12  1  0  0  0  0
 13 86  1  6  0  0  0
 14 13  1  0  0  0  0
 15 14  2  0  0  0  0
 16 17  1  0  0  0  0
 16 87  1  0  0  0  0
 16 88  1  0  0  0  0
 17 89  1  0  0  0  0
 18 14  1  0  0  0  0
 18 90  1  0  0  0  0
 19 22  1  0  0  0  0
 19 18  1  0  0  0  0
 19 91  1  1  0  0  0
 20 19  1  0  0  0  0
 21 20  2  0  0  0  0
 22 92  1  0  0  0  0
 22 93  1  0  0  0  0
 23 25  1  0  0  0  0
 23 22  1  0  0  0  0
 23 94  1  0  0  0  0
 24 23  1  0  0  0  0
 24 95  1  0  0  0  0
 24 96  1  0  0  0  0
 24 97  1  0  0  0  0
 25 98  1  0  0  0  0
 25 99  1  0  0  0  0
 25100  1  0  0  0  0
 26 20  1  0  0  0  0
 26101  1  0  0  0  0
 27 26  1  0  0  0  0
 27102  1  6  0  0  0
 28 27  1  0  0  0  0
 28 36  1  0  0  0  0
 29 28  2  0  0  0  0
 30 27  1  0  0  0  0
 30 31  1  0  0  0  0
 30103  1  0  0  0  0
 30104  1  0  0  0  0
 31 33  1  0  0  0  0
 31 32  1  0  0  0  0
 31105  1  6  0  0  0
 32 34  1  0  0  0  0
 32106  1  0  0  0  0
 33 35  1  0  0  0  0
 33107  1  0  0  0  0
 33108  1  0  0  0  0
 34109  1  0  0  0  0
 35 34  2  0  0  0  0
 36110  1  0  0  0  0
 37 36  1  0  0  0  0
 37 40  1  0  0  0  0
 37111  1  6  0  0  0
 38 37  1  0  0  0  0
 38 44  1  0  0  0  0
 39 38  2  0  0  0  0
 40 41  1  0  0  0  0
 40112  1  0  0  0  0
 40113  1  0  0  0  0
 41 42  1  0  0  0  0
 41114  1  0  0  0  0
 42115  1  0  0  0  0
 42116  1  0  0  0  0
 42117  1  0  0  0  0
 43 41  1  0  0  0  0
 43118  1  0  0  0  0
 43119  1  0  0  0  0
 43120  1  0  0  0  0
 44121  1  0  0  0  0
 45 44  1  0  0  0  0
 45 48  1  0  0  0  0
 45122  1  1  0  0  0
 46 45  1  0  0  0  0
 47 46  2  0  0  0  0
 48 49  1  0  0  0  0
 48123  1  0  0  0  0
 48124  1  0  0  0  0
 49 50  1  0  0  0  0
 49125  1  0  0  0  0
 49126  1  0  0  0  0
 50 52  1  0  0  0  0
 50 51  2  0  0  0  0
 52127  1  0  0  0  0
 52128  1  0  0  0  0
 53 46  1  0  0  0  0
 53129  1  0  0  0  0
 54 53  1  0  0  0  0
 54130  1  6  0  0  0
 55 61  1  0  0  0  0
 55 54  1  0  0  0  0
 56 55  2  0  0  0  0
 57 54  1  0  0  0  0
 57131  1  0  0  0  0
 57132  1  0  0  0  0
 58 59  1  0  0  0  0
 58 57  1  0  0  0  0
 58133  1  0  0  0  0
 59134  1  0  0  0  0
 59135  1  0  0  0  0
 59136  1  0  0  0  0
 60 58  1  0  0  0  0
 60137  1  0  0  0  0
 60138  1  0  0  0  0
 60139  1  0  0  0  0
 61140  1  0  0  0  0
 62 65  1  0  0  0  0
 62 61  1  0  0  0  0
 62141  1  1  0  0  0
 63 62  1  0  0  0  0
 64 63  1  0  0  0  0
 65 66  1  0  0  0  0
 65142  1  0  0  0  0
 65143  1  0  0  0  0
 66 67  1  0  0  0  0
 66144  1  0  0  0  0
 66145  1  0  0  0  0
 67146  1  0  0  0  0
 67147  1  0  0  0  0
 68 69  1  0  0  0  0
 68 67  1  0  0  0  0
 68148  1  0  0  0  0
 69 70  1  0  0  0  0
 70149  1  0  0  0  0
 70150  1  0  0  0  0
 71 69  2  0  0  0  0
 71151  1  0  0  0  0
 71152  1  0  0  0  0
 71153  1  0  0  0  0
 72 63  2  0  0  0  0
M  CHG  3   1   1  64  -1  71   1
M  END
>  <REMARK>
   1 CREATED WITH OPENMM 8.5.2, 2026-07-29

$$$$
