/mnt/hpc/home/25menglei/25wenshaohua/MD/yzy/docking/dc/peptides/pdb/fllhttr.pdb
 OpenBabel07292620093D

134135  0  0  1  0  0  0  0  0999 V2000
    5.2260    5.2210    8.7930 N   0  3  0  0  0  0  0  0  0  0  0  0
    4.7540    3.8860    8.3750 C   0  0  2  0  0  0  0  0  0  0  0  0
    4.4570    3.8880    6.8710 C   0  0  0  0  0  0  0  0  0  0  0  0
    3.4240    4.4060    6.4390 O   0  0  0  0  0  0  0  0  0  0  0  0
    3.5200    3.4780    9.1910 C   0  0  0  0  0  0  0  0  0  0  0  0
    3.1000    2.0490    8.9870 C   0  0  0  0  0  0  0  0  0  0  0  0
    3.7850    1.0190    9.6190 C   0  0  0  0  0  0  0  0  0  0  0  0
    2.0270    1.7480    8.1750 C   0  0  0  0  0  0  0  0  0  0  0  0
    3.4030   -0.2890    9.4370 C   0  0  0  0  0  0  0  0  0  0  0  0
    1.6350    0.4240    7.9860 C   0  0  0  0  0  0  0  0  0  0  0  0
    2.3270   -0.5860    8.6240 C   0  0  0  0  0  0  0  0  0  0  0  0
    5.3480    3.3760    6.0890 N   0  0  0  0  0  0  0  0  0  0  0  0
    5.2320    3.3650    4.6310 C   0  0  2  0  0  0  0  0  0  0  0  0
    4.7000    2.0210    4.1300 C   0  0  0  0  0  0  0  0  0  0  0  0
    5.4420    1.0430    4.0620 O   0  0  0  0  0  0  0  0  0  0  0  0
    6.5870    3.7070    3.9890 C   0  0  0  0  0  0  0  0  0  0  0  0
    6.5940    4.0200    2.4930 C   0  0  0  0  0  0  0  0  0  0  0  0
    5.8150    5.2960    2.1570 C   0  0  0  0  0  0  0  0  0  0  0  0
    8.0380    4.1510    2.0120 C   0  0  0  0  0  0  0  0  0  0  0  0
    3.4620    1.9980    3.7840 N   0  0  0  0  0  0  0  0  0  0  0  0
    2.8150    0.8020    3.2480 C   0  0  2  0  0  0  0  0  0  0  0  0
    2.5350    0.9510    1.7530 C   0  0  0  0  0  0  0  0  0  0  0  0
    1.5490    1.5550    1.3410 O   0  0  0  0  0  0  0  0  0  0  0  0
    1.5440    0.4560    4.0420 C   0  0  0  0  0  0  0  0  0  0  0  0
    0.4650    1.5400    4.2190 C   0  0  0  0  0  0  0  0  0  0  0  0
   -0.7130    1.3250    3.2520 C   0  0  0  0  0  0  0  0  0  0  0  0
   -0.0490    1.5350    5.6470 C   0  0  0  0  0  0  0  0  0  0  0  0
    3.4270    0.4350    0.9630 N   0  0  0  0  0  0  0  0  0  0  0  0
    3.2690    0.4490   -0.4830 C   0  0  2  0  0  0  0  0  0  0  0  0
    2.5670   -0.8270   -0.9490 C   0  0  0  0  0  0  0  0  0  0  0  0
    3.2000   -1.8090   -1.3250 O   0  0  0  0  0  0  0  0  0  0  0  0
    4.6260    0.6160   -1.1760 C   0  0  0  0  0  0  0  0  0  0  0  0
    4.9950    2.0520   -1.4330 C   0  0  2  0  0  0  0  0  0  0  0  0
    4.4020    2.8300   -2.4080 N   0  0  0  0  0  0  0  0  0  0  0  0
    5.9310    2.8260   -0.8280 C   0  0  0  0  0  0  0  0  0  0  0  0
    4.9650    4.0280   -2.3860 C   0  0  0  0  0  0  0  0  0  0  0  0
    5.8970    4.0580   -1.4380 N   0  0  0  0  0  0  0  0  0  0  0  0
    1.2720   -0.7630   -0.9000 N   0  0  0  0  0  0  0  0  0  0  0  0
    0.4400   -1.8780   -1.3540 C   0  0  2  0  0  0  0  0  0  0  0  0
    0.1620   -1.7690   -2.8460 C   0  0  0  0  0  0  0  0  0  0  0  0
   -0.8880   -1.2700   -3.2670 O   0  0  0  0  0  0  0  0  0  0  0  0
   -0.8740   -1.9680   -0.5550 C   0  0  2  0  0  0  0  0  0  0  0  0
   -1.4690   -0.6790   -0.4240 O   0  0  0  0  0  0  0  0  0  0  0  0
   -0.6430   -2.5610    0.8210 C   0  0  0  0  0  0  0  0  0  0  0  0
    1.0830   -2.2070   -3.6060 N   0  0  0  0  0  0  0  0  0  0  0  0
    1.0320   -2.1480   -5.0600 C   0  0  2  0  0  0  0  0  0  0  0  0
    0.5000   -3.4490   -5.6550 C   0  0  0  0  0  0  0  0  0  0  0  0
    0.7540   -4.5340   -5.1410 O   0  0  0  0  0  0  0  0  0  0  0  0
    2.4180   -1.8250   -5.6650 C   0  0  2  0  0  0  0  0  0  0  0  0
    3.4050   -1.7860   -4.6330 O   0  0  0  0  0  0  0  0  0  0  0  0
    2.4010   -0.4950   -6.3870 C   0  0  0  0  0  0  0  0  0  0  0  0
   -0.2120   -3.2910   -6.7280 N   0  0  0  0  0  0  0  0  0  0  0  0
   -0.7900   -4.4130   -7.4530 C   0  0  2  0  0  0  0  0  0  0  0  0
    0.1060   -4.8350   -8.6200 C   0  0  0  0  0  0  0  0  0  0  0  0
    0.9880   -4.0390   -9.0140 O   0  5  0  0  0  0  0  0  0  0  0  0
   -2.1890   -4.0350   -7.9820 C   0  0  0  0  0  0  0  0  0  0  0  0
   -3.2370   -5.1250   -7.9030 C   0  0  0  0  0  0  0  0  0  0  0  0
   -4.3000   -4.9370   -8.9660 C   0  0  0  0  0  0  0  0  0  0  0  0
   -4.0590   -5.8110  -10.1140 N   0  0  0  0  0  0  0  0  0  0  0  0
   -4.4970   -5.5700  -11.3590 C   0  0  0  0  0  0  0  0  0  0  0  0
   -5.1860   -4.4640  -11.6300 N   0  0  0  0  0  0  0  0  0  0  0  0
   -4.2550   -6.4380  -12.3180 N   0  3  0  0  0  0  0  0  0  0  0  0
   -0.0150   -5.9040   -9.1960 O   0  0  0  0  0  0  0  0  0  0  0  0
    6.0455    5.4794    8.2433 H   0  0  0  0  0  0  0  0  0  0  0  0
    5.4731    5.1999    9.7824 H   0  0  0  0  0  0  0  0  0  0  0  0
    4.4855    5.9061    8.6421 H   0  0  0  0  0  0  0  0  0  0  0  0
    4.8294    5.1517    9.7302 H   0  0  0  0  0  0  0  0  0  0  0  0
    5.5203    3.1632    8.5628 H   0  0  0  0  0  0  0  0  0  0  0  0
    2.7053    4.1120    8.9096 H   0  0  0  0  0  0  0  0  0  0  0  0
    3.7826    3.5802   10.2232 H   0  0  0  0  0  0  0  0  0  0  0  0
    4.5873    1.2375   10.2302 H   0  0  0  0  0  0  0  0  0  0  0  0
    1.5110    2.5078    7.7043 H   0  0  0  0  0  0  0  0  0  0  0  0
    3.9199   -1.0483    9.9075 H   0  0  0  0  0  0  0  0  0  0  0  0
    0.8344    0.2005    7.3744 H   0  0  0  0  0  0  0  0  0  0  0  0
    2.0386   -1.5681    8.4926 H   0  0  0  0  0  0  0  0  0  0  0  0
    6.1480    2.9715    6.4959 H   0  0  0  0  0  0  0  0  0  0  0  0
    4.5249    4.1136    4.3403 H   0  0  0  0  0  0  0  0  0  0  0  0
    6.9772    4.5632    4.4985 H   0  0  0  0  0  0  0  0  0  0  0  0
    7.1702    2.8152    4.0861 H   0  0  0  0  0  0  0  0  0  0  0  0
    6.1048    3.2123    1.9898 H   0  0  0  0  0  0  0  0  0  0  0  0
    6.2733    6.1320    2.6428 H   0  0  0  0  0  0  0  0  0  0  0  0
    4.8048    5.1967    2.4954 H   0  0  0  0  0  0  0  0  0  0  0  0
    5.8230    5.4504    1.0982 H   0  0  0  0  0  0  0  0  0  0  0  0
    8.5124    4.9619    2.5241 H   0  0  0  0  0  0  0  0  0  0  0  0
    8.0474    4.3400    0.9589 H   0  0  0  0  0  0  0  0  0  0  0  0
    8.5657    3.2428    2.2161 H   0  0  0  0  0  0  0  0  0  0  0  0
    2.9282    2.8192    3.8841 H   0  0  0  0  0  0  0  0  0  0  0  0
    3.4900   -0.0205    3.3614 H   0  0  0  0  0  0  0  0  0  0  0  0
    1.8557    0.1589    5.0215 H   0  0  0  0  0  0  0  0  0  0  0  0
    1.0637   -0.2945    3.4495 H   0  0  0  0  0  0  0  0  0  0  0  0
    0.9150    2.4854    3.9984 H   0  0  0  0  0  0  0  0  0  0  0  0
   -1.1762    0.3827    3.4581 H   0  0  0  0  0  0  0  0  0  0  0  0
   -0.3533    1.3328    2.2443 H   0  0  0  0  0  0  0  0  0  0  0  0
   -1.4285    2.1100    3.3814 H   0  0  0  0  0  0  0  0  0  0  0  0
   -0.4976    0.5875    5.8613 H   0  0  0  0  0  0  0  0  0  0  0  0
   -0.7773    2.3097    5.7666 H   0  0  0  0  0  0  0  0  0  0  0  0
    0.7656    1.7043    6.3199 H   0  0  0  0  0  0  0  0  0  0  0  0
    4.2317    0.0233    1.3531 H   0  0  0  0  0  0  0  0  0  0  0  0
    2.6599    1.2862   -0.7531 H   0  0  0  0  0  0  0  0  0  0  0  0
    5.3796    0.1784   -0.5552 H   0  0  0  0  0  0  0  0  0  0  0  0
    4.5549    0.1336   -2.1284 H   0  0  0  0  0  0  0  0  0  0  0  0
    4.9139    1.0968   -0.9577 H   0  0  0  0  0  0  0  0  0  0  0  0
    3.6829    2.5426   -3.0159 H   0  0  0  0  0  0  0  0  0  0  0  0
    5.7062    2.9263    0.2133 H   0  0  0  0  0  0  0  0  0  0  0  0
    6.9022    2.3856   -0.9160 H   0  0  0  0  0  0  0  0  0  0  0  0
    4.7192    4.8148   -3.0069 H   0  0  0  0  0  0  0  0  0  0  0  0
    0.8412    0.0506   -0.5510 H   0  0  0  0  0  0  0  0  0  0  0  0
    0.9847   -2.7818   -1.1772 H   0  0  0  0  0  0  0  0  0  0  0  0
   -1.5359   -2.6112   -1.0963 H   0  0  0  0  0  0  0  0  0  0  0  0
   -0.8700   -0.0947    0.0666 H   0  0  0  0  0  0  0  0  0  0  0  0
    0.0181   -1.9283    1.3756 H   0  0  0  0  0  0  0  0  0  0  0  0
   -0.2068   -3.5330    0.7218 H   0  0  0  0  0  0  0  0  0  0  0  0
   -1.5772   -2.6402    1.3367 H   0  0  0  0  0  0  0  0  0  0  0  0
    1.8773   -2.6097   -3.1864 H   0  0  0  0  0  0  0  0  0  0  0  0
    0.3576   -1.3564   -5.3117 H   0  0  0  0  0  0  0  0  0  0  0  0
    2.6573   -2.5952   -6.3682 H   0  0  0  0  0  0  0  0  0  0  0  0
    3.1826   -1.0862   -3.9991 H   0  0  0  0  0  0  0  0  0  0  0  0
    2.1626    0.2842   -5.6936 H   0  0  0  0  0  0  0  0  0  0  0  0
    1.6645   -0.5197   -7.1628 H   0  0  0  0  0  0  0  0  0  0  0  0
    3.3639   -0.3092   -6.8151 H   0  0  0  0  0  0  0  0  0  0  0  0
   -0.3670   -2.3788   -7.0642 H   0  0  0  0  0  0  0  0  0  0  0  0
   -0.8743   -5.2377   -6.7764 H   0  0  0  0  0  0  0  0  0  0  0  0
   -2.5405   -3.1991   -7.4140 H   0  0  0  0  0  0  0  0  0  0  0  0
   -2.0609   -3.8283   -9.0240 H   0  0  0  0  0  0  0  0  0  0  0  0
   -2.7649   -6.0747   -8.0448 H   0  0  0  0  0  0  0  0  0  0  0  0
   -3.7050   -5.0777   -6.9420 H   0  0  0  0  0  0  0  0  0  0  0  0
   -5.2574   -5.1668   -8.5470 H   0  0  0  0  0  0  0  0  0  0  0  0
   -4.2693   -3.9211   -9.3006 H   0  0  0  0  0  0  0  0  0  0  0  0
   -3.5392   -6.6333   -9.9625 H   0  0  0  0  0  0  0  0  0  0  0  0
   -5.5040   -4.2942  -12.5461 H   0  0  0  0  0  0  0  0  0  0  0  0
   -5.3776   -3.8157  -10.9143 H   0  0  0  0  0  0  0  0  0  0  0  0
   -4.5754   -6.2634  -13.2324 H   0  0  0  0  0  0  0  0  0  0  0  0
   -3.7536   -7.2620  -12.1211 H   0  0  0  0  0  0  0  0  0  0  0  0
   -3.3845   -5.9786  -12.2969 H   0  0  0  0  0  0  0  0  0  0  0  0
  1 64  1  0  0  0  0
  1 65  1  0  0  0  0
  1 66  1  0  0  0  0
  1 67  1  0  0  0  0
  2  1  1  0  0  0  0
  2  5  1  0  0  0  0
  2 68  1  1  0  0  0
  3  2  1  0  0  0  0
  4  3  2  0  0  0  0
  5 69  1  0  0  0  0
  5 70  1  0  0  0  0
  6  5  1  0  0  0  0
  6  7  1  0  0  0  0
  7 71  1  0  0  0  0
  8  6  2  0  0  0  0
  8 72  1  0  0  0  0
  9  7  2  0  0  0  0
  9 73  1  0  0  0  0
 10  8  1  0  0  0  0
 10 11  2  0  0  0  0
 10 74  1  0  0  0  0
 11  9  1  0  0  0  0
 11 75  1  0  0  0  0
 12  3  1  0  0  0  0
 12 76  1  0  0  0  0
 13 12  1  0  0  0  0
 13 77  1  6  0  0  0
 14 13  1  0  0  0  0
 15 14  2  0  0  0  0
 16 13  1  0  0  0  0
 16 78  1  0  0  0  0
 16 79  1  0  0  0  0
 17 16  1  0  0  0  0
 17 80  1  0  0  0  0
 18 17  1  0  0  0  0
 18 81  1  0  0  0  0
 18 82  1  0  0  0  0
 18 83  1  0  0  0  0
 19 17  1  0  0  0  0
 19 84  1  0  0  0  0
 19 85  1  0  0  0  0
 19 86  1  0  0  0  0
 20 14  1  0  0  0  0
 20 87  1  0  0  0  0
 21 20  1  0  0  0  0
 21 24  1  0  0  0  0
 21 88  1  1  0  0  0
 22 21  1  0  0  0  0
 23 22  2  0  0  0  0
 24 25  1  0  0  0  0
 24 89  1  0  0  0  0
 24 90  1  0  0  0  0
 25 27  1  0  0  0  0
 25 91  1  0  0  0  0
 26 25  1  0  0  0  0
 26 92  1  0  0  0  0
 26 93  1  0  0  0  0
 26 94  1  0  0  0  0
 27 95  1  0  0  0  0
 27 96  1  0  0  0  0
 27 97  1  0  0  0  0
 28 22  1  0  0  0  0
 28 98  1  0  0  0  0
 29 28  1  0  0  0  0
 29 99  1  6  0  0  0
 30 38  1  0  0  0  0
 30 29  1  0  0  0  0
 31 30  2  0  0  0  0
 32 29  1  0  0  0  0
 32100  1  0  0  0  0
 32101  1  0  0  0  0
 33 32  1  0  0  0  0
 33 35  1  0  0  0  0
 33102  1  1  0  0  0
 34 36  1  0  0  0  0
 34 33  1  0  0  0  0
 34103  1  0  0  0  0
 35104  1  0  0  0  0
 35105  1  0  0  0  0
 36 37  2  0  0  0  0
 36106  1  0  0  0  0
 37 35  1  0  0  0  0
 38107  1  0  0  0  0
 39 38  1  0  0  0  0
 39 42  1  0  0  0  0
 39108  1  1  0  0  0
 40 39  1  0  0  0  0
 41 40  2  0  0  0  0
 42 43  1  0  0  0  0
 42 44  1  0  0  0  0
 42109  1  6  0  0  0
 43110  1  0  0  0  0
 44111  1  0  0  0  0
 44112  1  0  0  0  0
 44113  1  0  0  0  0
 45 40  1  0  0  0  0
 45114  1  0  0  0  0
 46 45  1  0  0  0  0
 46115  1  6  0  0  0
 47 48  2  0  0  0  0
 47 46  1  0  0  0  0
 49 46  1  0  0  0  0
 49 50  1  0  0  0  0
 49116  1  6  0  0  0
 50117  1  0  0  0  0
 51 49  1  0  0  0  0
 51118  1  0  0  0  0
 51119  1  0  0  0  0
 51120  1  0  0  0  0
 52 47  1  0  0  0  0
 52121  1  0  0  0  0
 53 52  1  0  0  0  0
 53122  1  1  0  0  0
 54 53  1  0  0  0  0
 55 54  1  0  0  0  0
 56 57  1  0  0  0  0
 56 53  1  0  0  0  0
 56123  1  0  0  0  0
 56124  1  0  0  0  0
 57125  1  0  0  0  0
 57126  1  0  0  0  0
 58 57  1  0  0  0  0
 58127  1  0  0  0  0
 58128  1  0  0  0  0
 59 58  1  0  0  0  0
 59129  1  0  0  0  0
 60 59  1  0  0  0  0
 61 60  1  0  0  0  0
 61130  1  0  0  0  0
 61131  1  0  0  0  0
 62 60  2  0  0  0  0
 62132  1  0  0  0  0
 62133  1  0  0  0  0
 62134  1  0  0  0  0
 63 54  2  0  0  0  0
M  CHG  3   1   1  55  -1  62   1
M  END
>  <REMARK>
   1 CREATED WITH OPENMM 8.5.2, 2026-07-29

$$$$
