/mnt/hpc/home/25menglei/25wenshaohua/MD/yzy/docking/dc/peptides/pdb/hlltlkkhv.pdb
 OpenBabel07292620093D

171172  0  0  1  0  0  0  0  0999 V2000
    2.9290    0.2170    6.5650 N   0  3  0  0  0  0  0  0  0  0  0  0
    3.4800   -0.4900    5.4000 C   0  0  2  0  0  0  0  0  0  0  0  0
    2.7250   -0.1140    4.1280 C   0  0  0  0  0  0  0  0  0  0  0  0
    1.5010   -0.0110    4.1460 O   0  0  0  0  0  0  0  0  0  0  0  0
    3.3770   -1.9970    5.6130 C   0  0  0  0  0  0  0  0  0  0  0  0
    4.5570   -2.5740    6.3330 C   0  0  0  0  0  0  0  0  0  0  0  0
    5.3610   -1.8440    7.1800 N   0  0  0  0  0  0  0  0  0  0  0  0
    5.0520   -3.8510    6.3250 C   0  0  0  0  0  0  0  0  0  0  0  0
    6.3040   -2.6310    7.6540 C   0  0  0  0  0  0  0  0  0  0  0  0
    6.1280   -3.8510    7.1510 N   0  0  0  0  0  0  0  0  0  0  0  0
    3.4410    0.0710    3.0380 N   0  0  0  0  0  0  0  0  0  0  0  0
    2.8520    0.4080    1.7520 C   0  0  2  0  0  0  0  0  0  0  0  0
    2.9300   -0.7960    0.8170 C   0  0  0  0  0  0  0  0  0  0  0  0
    3.1640   -0.6580   -0.3810 O   0  0  0  0  0  0  0  0  0  0  0  0
    3.5740    1.6090    1.1530 C   0  0  0  0  0  0  0  0  0  0  0  0
    2.6710    2.5910    0.4120 C   0  0  0  0  0  0  0  0  0  0  0  0
    1.7100    3.2620    1.3820 C   0  0  0  0  0  0  0  0  0  0  0  0
    3.5000    3.6420   -0.3060 C   0  0  0  0  0  0  0  0  0  0  0  0
    2.7250   -1.9350    1.3990 N   0  0  0  0  0  0  0  0  0  0  0  0
    2.8050   -3.1900    0.6700 C   0  0  2  0  0  0  0  0  0  0  0  0
    1.4200   -3.6750    0.2770 C   0  0  0  0  0  0  0  0  0  0  0  0
    1.1710   -4.0190   -0.8780 O   0  0  0  0  0  0  0  0  0  0  0  0
    3.5130   -4.2310    1.5400 C   0  0  0  0  0  0  0  0  0  0  0  0
    4.3150   -5.2740    0.7730 C   0  0  0  0  0  0  0  0  0  0  0  0
    5.2780   -5.9830    1.6960 C   0  0  0  0  0  0  0  0  0  0  0  0
    3.4140   -6.2800    0.0990 C   0  0  0  0  0  0  0  0  0  0  0  0
    0.5320   -3.6600    1.2400 N   0  0  0  0  0  0  0  0  0  0  0  0
   -0.8320   -4.1100    1.0140 C   0  0  2  0  0  0  0  0  0  0  0  0
   -1.6460   -3.0600    0.2650 C   0  0  0  0  0  0  0  0  0  0  0  0
   -2.5030   -3.3900   -0.5510 O   0  0  0  0  0  0  0  0  0  0  0  0
   -1.5050   -4.4330    2.3520 C   0  0  2  0  0  0  0  0  0  0  0  0
   -0.6160   -5.2150    3.1510 O   0  0  0  0  0  0  0  0  0  0  0  0
   -2.7940   -5.2090    2.1350 C   0  0  0  0  0  0  0  0  0  0  0  0
   -1.3640   -1.8020    0.5550 N   0  0  0  0  0  0  0  0  0  0  0  0
   -2.0730   -0.7040   -0.0780 C   0  0  2  0  0  0  0  0  0  0  0  0
   -1.8470   -0.6970   -1.5830 C   0  0  0  0  0  0  0  0  0  0  0  0
   -2.7320   -0.3210   -2.3450 O   0  0  0  0  0  0  0  0  0  0  0  0
   -1.6320    0.6210    0.5270 C   0  0  0  0  0  0  0  0  0  0  0  0
   -2.5290    1.8140    0.1890 C   0  0  0  0  0  0  0  0  0  0  0  0
   -3.9030    1.6370    0.8010 C   0  0  0  0  0  0  0  0  0  0  0  0
   -1.8960    3.1000    0.6820 C   0  0  0  0  0  0  0  0  0  0  0  0
   -0.7030   -1.1010   -1.9940 N   0  0  0  0  0  0  0  0  0  0  0  0
   -0.3670   -1.1490   -3.4100 C   0  0  2  0  0  0  0  0  0  0  0  0
   -1.3050   -2.0760   -4.1720 C   0  0  0  0  0  0  0  0  0  0  0  0
   -1.5200   -1.9010   -5.3690 O   0  0  0  0  0  0  0  0  0  0  0  0
    1.0760   -1.6190   -3.5870 C   0  0  0  0  0  0  0  0  0  0  0  0
    2.0790   -0.4840   -3.4230 C   0  0  0  0  0  0  0  0  0  0  0  0
    2.3000    0.2340   -4.7260 C   0  0  0  0  0  0  0  0  0  0  0  0
    3.5170    1.1520   -4.6490 C   0  0  0  0  0  0  0  0  0  0  0  0
    4.0230    1.5030   -5.9950 N   0  3  0  0  0  0  0  0  0  0  0  0
   -1.8770   -3.0280   -3.4710 N   0  0  0  0  0  0  0  0  0  0  0  0
   -2.7980   -3.9830   -4.0570 C   0  0  2  0  0  0  0  0  0  0  0  0
   -4.1830   -3.3640   -4.2350 C   0  0  0  0  0  0  0  0  0  0  0  0
   -5.0140   -3.8970   -4.9720 O   0  0  0  0  0  0  0  0  0  0  0  0
   -2.9020   -5.2320   -3.1870 C   0  0  0  0  0  0  0  0  0  0  0  0
   -1.5680   -5.8240   -2.7740 C   0  0  0  0  0  0  0  0  0  0  0  0
   -1.1840   -7.0180   -3.6240 C   0  0  0  0  0  0  0  0  0  0  0  0
    0.0040   -7.7560   -3.0370 C   0  0  0  0  0  0  0  0  0  0  0  0
    0.4830   -8.8320   -3.9230 N   0  3  0  0  0  0  0  0  0  0  0  0
   -4.4220   -2.2590   -3.5380 N   0  0  0  0  0  0  0  0  0  0  0  0
   -5.7060   -1.5860   -3.5850 C   0  0  2  0  0  0  0  0  0  0  0  0
   -5.6770   -0.4040   -4.5450 C   0  0  0  0  0  0  0  0  0  0  0  0
   -6.7150    0.0230   -5.0490 O   0  0  0  0  0  0  0  0  0  0  0  0
   -6.1070   -1.1120   -2.1860 C   0  0  0  0  0  0  0  0  0  0  0  0
   -6.6030   -2.2320   -1.3130 C   0  0  0  0  0  0  0  0  0  0  0  0
   -7.9350   -2.4180   -1.0290 N   0  0  0  0  0  0  0  0  0  0  0  0
   -5.9470   -3.2180   -0.6750 C   0  0  0  0  0  0  0  0  0  0  0  0
   -8.0600   -3.4790   -0.2440 C   0  0  0  0  0  0  0  0  0  0  0  0
   -6.8740   -3.9860   -0.0110 N   0  0  0  0  0  0  0  0  0  0  0  0
   -4.4990    0.1120   -4.7820 N   0  0  0  0  0  0  0  0  0  0  0  0
   -4.3320    1.2590   -5.6630 C   0  0  2  0  0  0  0  0  0  0  0  0
   -3.5160    0.8610   -6.8830 C   0  0  0  0  0  0  0  0  0  0  0  0
   -4.0320    0.9920   -8.0210 O   0  0  0  0  0  0  0  0  0  0  0  0
   -3.6640    2.4380   -4.9420 C   0  0  0  0  0  0  0  0  0  0  0  0
   -3.5620    3.6400   -5.8560 C   0  0  0  0  0  0  0  0  0  0  0  0
   -4.4310    2.7980   -3.6850 C   0  0  0  0  0  0  0  0  0  0  0  0
   -2.4110    0.3850   -6.6980 O   0  5  0  0  0  0  0  0  0  0  0  0
    3.0005    1.2237    6.4169 H   0  0  0  0  0  0  0  0  0  0  0  0
    3.4547   -0.0421    7.3998 H   0  0  0  0  0  0  0  0  0  0  0  0
    1.9494   -0.0400    6.6867 H   0  0  0  0  0  0  0  0  0  0  0  0
    2.6819   -0.7622    6.7083 H   0  0  0  0  0  0  0  0  0  0  0  0
    4.5056   -0.2048    5.2919 H   0  0  0  0  0  0  0  0  0  0  0  0
    3.2972   -2.4708    4.6569 H   0  0  0  0  0  0  0  0  0  0  0  0
    2.5155   -2.1735    6.2226 H   0  0  0  0  0  0  0  0  0  0  0  0
    5.2489   -0.8900    7.3957 H   0  0  0  0  0  0  0  0  0  0  0  0
    4.6798   -4.6546    5.7951 H   0  0  0  0  0  0  0  0  0  0  0  0
    7.0532   -2.3497    8.3056 H   0  0  0  0  0  0  0  0  0  0  0  0
    4.4192   -0.0232    3.0967 H   0  0  0  0  0  0  0  0  0  0  0  0
    1.8221    0.6655    1.8862 H   0  0  0  0  0  0  0  0  0  0  0  0
    4.0592    2.1366    1.9475 H   0  0  0  0  0  0  0  0  0  0  0  0
    4.2573    1.2199    0.4273 H   0  0  0  0  0  0  0  0  0  0  0  0
    2.1063    2.0446   -0.3142 H   0  0  0  0  0  0  0  0  0  0  0  0
    2.2663    3.8113    2.1126 H   0  0  0  0  0  0  0  0  0  0  0  0
    1.1182    2.5165    1.8708 H   0  0  0  0  0  0  0  0  0  0  0  0
    1.0697    3.9301    0.8449 H   0  0  0  0  0  0  0  0  0  0  0  0
    4.0704    4.1964    0.4096 H   0  0  0  0  0  0  0  0  0  0  0  0
    2.8510    4.3067   -0.8370 H   0  0  0  0  0  0  0  0  0  0  0  0
    4.1625    3.1632   -0.9964 H   0  0  0  0  0  0  0  0  0  0  0  0
    2.5095   -1.9510    2.3595 H   0  0  0  0  0  0  0  0  0  0  0  0
    3.3640   -3.0390   -0.2298 H   0  0  0  0  0  0  0  0  0  0  0  0
    2.7704   -4.7417    2.1168 H   0  0  0  0  0  0  0  0  0  0  0  0
    4.2184   -3.6915    2.1369 H   0  0  0  0  0  0  0  0  0  0  0  0
    4.8675   -4.7613    0.0136 H   0  0  0  0  0  0  0  0  0  0  0  0
    4.7293   -6.4972    2.4572 H   0  0  0  0  0  0  0  0  0  0  0  0
    5.9307   -5.2664    2.1491 H   0  0  0  0  0  0  0  0  0  0  0  0
    5.8560   -6.6876    1.1354 H   0  0  0  0  0  0  0  0  0  0  0  0
    2.8498   -6.8065    0.8403 H   0  0  0  0  0  0  0  0  0  0  0  0
    4.0082   -6.9747   -0.4571 H   0  0  0  0  0  0  0  0  0  0  0  0
    2.7452   -5.7720   -0.5640 H   0  0  0  0  0  0  0  0  0  0  0  0
    0.7930   -3.3382    2.1330 H   0  0  0  0  0  0  0  0  0  0  0  0
   -0.7929   -4.9930    0.4109 H   0  0  0  0  0  0  0  0  0  0  0  0
   -1.7369   -3.5135    2.8476 H   0  0  0  0  0  0  0  0  0  0  0  0
   -0.4135   -6.0449    2.6915 H   0  0  0  0  0  0  0  0  0  0  0  0
   -2.5756   -6.1319    1.6395 H   0  0  0  0  0  0  0  0  0  0  0  0
   -3.4618   -4.6298    1.5321 H   0  0  0  0  0  0  0  0  0  0  0  0
   -3.2519   -5.4116    3.0806 H   0  0  0  0  0  0  0  0  0  0  0  0
   -0.6591   -1.6052    1.2134 H   0  0  0  0  0  0  0  0  0  0  0  0
   -3.1199   -0.8386    0.0977 H   0  0  0  0  0  0  0  0  0  0  0  0
   -0.6455    0.8361    0.1729 H   0  0  0  0  0  0  0  0  0  0  0  0
   -1.6836    0.4981    1.5887 H   0  0  0  0  0  0  0  0  0  0  0  0
   -2.6370    1.8677   -0.8742 H   0  0  0  0  0  0  0  0  0  0  0  0
   -3.8146    1.5812    1.8659 H   0  0  0  0  0  0  0  0  0  0  0  0
   -4.3443    0.7348    0.4320 H   0  0  0  0  0  0  0  0  0  0  0  0
   -4.5208    2.4699    0.5375 H   0  0  0  0  0  0  0  0  0  0  0  0
   -1.7831    3.0573    1.7452 H   0  0  0  0  0  0  0  0  0  0  0  0
   -2.5222    3.9280    0.4228 H   0  0  0  0  0  0  0  0  0  0  0  0
   -0.9358    3.2226    0.2260 H   0  0  0  0  0  0  0  0  0  0  0  0
   -0.0315   -1.3873   -1.3334 H   0  0  0  0  0  0  0  0  0  0  0  0
   -0.4763   -0.1619   -3.8082 H   0  0  0  0  0  0  0  0  0  0  0  0
    1.2850   -2.3711   -2.8551 H   0  0  0  0  0  0  0  0  0  0  0  0
    1.1755   -2.0021   -4.5811 H   0  0  0  0  0  0  0  0  0  0  0  0
    1.7058    0.2107   -2.6998 H   0  0  0  0  0  0  0  0  0  0  0  0
    3.0114   -0.8977   -3.0999 H   0  0  0  0  0  0  0  0  0  0  0  0
    2.4553   -0.4877   -5.5005 H   0  0  0  0  0  0  0  0  0  0  0  0
    1.4371    0.8311   -4.9352 H   0  0  0  0  0  0  0  0  0  0  0  0
    3.2421    2.0502   -4.1366 H   0  0  0  0  0  0  0  0  0  0  0  0
    4.2931    0.6343   -4.1250 H   0  0  0  0  0  0  0  0  0  0  0  0
    3.2970    1.9984   -6.5126 H   0  0  0  0  0  0  0  0  0  0  0  0
    4.2764    0.6513   -6.4957 H   0  0  0  0  0  0  0  0  0  0  0  0
    4.8442    2.1012   -5.9042 H   0  0  0  0  0  0  0  0  0  0  0  0
    3.6686    1.9132   -6.8590 H   0  0  0  0  0  0  0  0  0  0  0  0
   -1.6727   -3.0960   -2.5103 H   0  0  0  0  0  0  0  0  0  0  0  0
   -2.4170   -4.2577   -5.0184 H   0  0  0  0  0  0  0  0  0  0  0  0
   -3.4428   -5.9760   -3.7337 H   0  0  0  0  0  0  0  0  0  0  0  0
   -3.3950   -4.9344   -2.2852 H   0  0  0  0  0  0  0  0  0  0  0  0
   -0.8122   -5.0731   -2.8732 H   0  0  0  0  0  0  0  0  0  0  0  0
   -1.6558   -6.1567   -1.7608 H   0  0  0  0  0  0  0  0  0  0  0  0
   -2.0167   -7.6876   -3.6802 H   0  0  0  0  0  0  0  0  0  0  0  0
   -0.9140   -6.6655   -4.5975 H   0  0  0  0  0  0  0  0  0  0  0  0
    0.8001   -7.0584   -2.8803 H   0  0  0  0  0  0  0  0  0  0  0  0
   -0.3085   -8.2028   -2.1163 H   0  0  0  0  0  0  0  0  0  0  0  0
    0.7877   -8.4315   -4.8102 H   0  0  0  0  0  0  0  0  0  0  0  0
   -0.2731   -9.4956   -4.0914 H   0  0  0  0  0  0  0  0  0  0  0  0
    1.2658   -9.3135   -3.4806 H   0  0  0  0  0  0  0  0  0  0  0  0
   -0.1687   -8.9270   -3.1441 H   0  0  0  0  0  0  0  0  0  0  0  0
   -3.7071   -1.8860   -2.9732 H   0  0  0  0  0  0  0  0  0  0  0  0
   -6.4308   -2.2877   -3.9417 H   0  0  0  0  0  0  0  0  0  0  0  0
   -6.8841   -0.3827   -2.2815 H   0  0  0  0  0  0  0  0  0  0  0  0
   -5.2345   -0.7025   -1.7213 H   0  0  0  0  0  0  0  0  0  0  0  0
   -8.6745   -1.8558   -1.3549 H   0  0  0  0  0  0  0  0  0  0  0  0
   -4.9265   -3.3711   -0.6826 H   0  0  0  0  0  0  0  0  0  0  0  0
   -8.9504   -3.8475    0.1253 H   0  0  0  0  0  0  0  0  0  0  0  0
   -3.7059   -0.2847   -4.3544 H   0  0  0  0  0  0  0  0  0  0  0  0
   -5.3051    1.5786   -5.9725 H   0  0  0  0  0  0  0  0  0  0  0  0
   -2.6745    2.1395   -4.6652 H   0  0  0  0  0  0  0  0  0  0  0  0
   -4.5437    3.9535   -6.1439 H   0  0  0  0  0  0  0  0  0  0  0  0
   -3.0011    3.3779   -6.7287 H   0  0  0  0  0  0  0  0  0  0  0  0
   -3.0691    4.4384   -5.3416 H   0  0  0  0  0  0  0  0  0  0  0  0
   -5.4239    3.0989   -3.9469 H   0  0  0  0  0  0  0  0  0  0  0  0
   -3.9353    3.6024   -3.1828 H   0  0  0  0  0  0  0  0  0  0  0  0
   -4.4752    1.9469   -3.0381 H   0  0  0  0  0  0  0  0  0  0  0  0
  1 78  1  0  0  0  0
  1 79  1  0  0  0  0
  1 80  1  0  0  0  0
  1 81  1  0  0  0  0
  2  5  1  0  0  0  0
  2  1  1  0  0  0  0
  2 82  1  6  0  0  0
  3  4  2  0  0  0  0
  3  2  1  0  0  0  0
  5  6  1  0  0  0  0
  5 83  1  0  0  0  0
  5 84  1  0  0  0  0
  6  7  1  0  0  0  0
  7  9  1  0  0  0  0
  7 85  1  0  0  0  0
  8  6  2  0  0  0  0
  8 10  1  0  0  0  0
  8 86  1  0  0  0  0
  9 87  1  0  0  0  0
 10  9  2  0  0  0  0
 11  3  1  0  0  0  0
 11 88  1  0  0  0  0
 12 11  1  0  0  0  0
 12 89  1  1  0  0  0
 13 19  1  0  0  0  0
 13 12  1  0  0  0  0
 14 13  2  0  0  0  0
 15 12  1  0  0  0  0
 15 90  1  0  0  0  0
 15 91  1  0  0  0  0
 16 15  1  0  0  0  0
 16 17  1  0  0  0  0
 16 92  1  0  0  0  0
 17 93  1  0  0  0  0
 17 94  1  0  0  0  0
 17 95  1  0  0  0  0
 18 16  1  0  0  0  0
 18 96  1  0  0  0  0
 18 97  1  0  0  0  0
 18 98  1  0  0  0  0
 19 99  1  0  0  0  0
 20 19  1  0  0  0  0
 20 23  1  0  0  0  0
 20100  1  6  0  0  0
 21 20  1  0  0  0  0
 21 27  1  0  0  0  0
 22 21  2  0  0  0  0
 23101  1  0  0  0  0
 23102  1  0  0  0  0
 24 23  1  0  0  0  0
 24 25  1  0  0  0  0
 24103  1  0  0  0  0
 25104  1  0  0  0  0
 25105  1  0  0  0  0
 25106  1  0  0  0  0
 26 24  1  0  0  0  0
 26107  1  0  0  0  0
 26108  1  0  0  0  0
 26109  1  0  0  0  0
 27110  1  0  0  0  0
 28 27  1  0  0  0  0
 28 31  1  0  0  0  0
 28111  1  6  0  0  0
 29 34  1  0  0  0  0
 29 28  1  0  0  0  0
 30 29  2  0  0  0  0
 31 32  1  0  0  0  0
 31112  1  1  0  0  0
 32113  1  0  0  0  0
 33 31  1  0  0  0  0
 33114  1  0  0  0  0
 33115  1  0  0  0  0
 33116  1  0  0  0  0
 34117  1  0  0  0  0
 35 38  1  0  0  0  0
 35 34  1  0  0  0  0
 35118  1  1  0  0  0
 36 35  1  0  0  0  0
 37 36  2  0  0  0  0
 38119  1  0  0  0  0
 38120  1  0  0  0  0
 39 38  1  0  0  0  0
 39 41  1  0  0  0  0
 39 40  1  0  0  0  0
 39121  1  0  0  0  0
 40122  1  0  0  0  0
 40123  1  0  0  0  0
 40124  1  0  0  0  0
 41125  1  0  0  0  0
 41126  1  0  0  0  0
 41127  1  0  0  0  0
 42 36  1  0  0  0  0
 42128  1  0  0  0  0
 43 42  1  0  0  0  0
 43129  1  6  0  0  0
 44 51  1  0  0  0  0
 44 43  1  0  0  0  0
 45 44  2  0  0  0  0
 46 47  1  0  0  0  0
 46 43  1  0  0  0  0
 46130  1  0  0  0  0
 46131  1  0  0  0  0
 47132  1  0  0  0  0
 47133  1  0  0  0  0
 48 49  1  0  0  0  0
 48 47  1  0  0  0  0
 48134  1  0  0  0  0
 48135  1  0  0  0  0
 49136  1  0  0  0  0
 49137  1  0  0  0  0
 50 49  1  0  0  0  0
 50138  1  0  0  0  0
 50139  1  0  0  0  0
 50140  1  0  0  0  0
 50141  1  0  0  0  0
 51142  1  0  0  0  0
 52 51  1  0  0  0  0
 52 55  1  0  0  0  0
 52143  1  6  0  0  0
 53 52  1  0  0  0  0
 53 60  1  0  0  0  0
 54 53  2  0  0  0  0
 55 56  1  0  0  0  0
 55144  1  0  0  0  0
 55145  1  0  0  0  0
 56146  1  0  0  0  0
 56147  1  0  0  0  0
 57 58  1  0  0  0  0
 57 56  1  0  0  0  0
 57148  1  0  0  0  0
 57149  1  0  0  0  0
 58150  1  0  0  0  0
 58151  1  0  0  0  0
 59 58  1  0  0  0  0
 59152  1  0  0  0  0
 59153  1  0  0  0  0
 59154  1  0  0  0  0
 59155  1  0  0  0  0
 60156  1  0  0  0  0
 61 60  1  0  0  0  0
 61 64  1  0  0  0  0
 61157  1  6  0  0  0
 62 61  1  0  0  0  0
 63 62  2  0  0  0  0
 64 65  1  0  0  0  0
 64158  1  0  0  0  0
 64159  1  0  0  0  0
 65 66  1  0  0  0  0
 65 67  2  0  0  0  0
 66 68  1  0  0  0  0
 66160  1  0  0  0  0
 67 69  1  0  0  0  0
 67161  1  0  0  0  0
 68 69  2  0  0  0  0
 68162  1  0  0  0  0
 70 62  1  0  0  0  0
 70163  1  0  0  0  0
 71 74  1  0  0  0  0
 71 70  1  0  0  0  0
 71164  1  6  0  0  0
 72 77  1  0  0  0  0
 72 71  1  0  0  0  0
 73 72  2  0  0  0  0
 74 76  1  0  0  0  0
 74165  1  0  0  0  0
 75 74  1  0  0  0  0
 75166  1  0  0  0  0
 75167  1  0  0  0  0
 75168  1  0  0  0  0
 76169  1  0  0  0  0
 76170  1  0  0  0  0
 76171  1  0  0  0  0
M  CHG  4   1   1  50   1  59   1  77  -1
M  END
>  <REMARK>
   1 CREATED WITH OPENMM 8.5.2, 2026-07-29

$$$$
