/mnt/hpc/home/25menglei/25wenshaohua/MD/yzy/docking/dc/peptides/pdb/hlpllhrcc.pdb
 OpenBabel07292620093D

156158  0  0  1  0  0  0  0  0999 V2000
    7.0730  -10.0250    6.9580 N   0  3  0  0  0  0  0  0  0  0  0  0
    7.0550   -9.1090    5.8020 C   0  0  2  0  0  0  0  0  0  0  0  0
    5.9210   -8.1060    5.9460 C   0  0  0  0  0  0  0  0  0  0  0  0
    4.8680   -8.4300    6.4890 O   0  0  0  0  0  0  0  0  0  0  0  0
    6.8830   -9.9070    4.5120 C   0  0  0  0  0  0  0  0  0  0  0  0
    8.0840  -10.7640    4.2100 C   0  0  0  0  0  0  0  0  0  0  0  0
    9.2030  -10.3010    3.5690 N   0  0  0  0  0  0  0  0  0  0  0  0
    8.3170  -12.0690    4.4870 C   0  0  0  0  0  0  0  0  0  0  0  0
   10.0820  -11.2790    3.4580 C   0  0  0  0  0  0  0  0  0  0  0  0
    9.5750  -12.3810    4.0140 N   0  0  0  0  0  0  0  0  0  0  0  0
    6.1530   -6.8890    5.4750 N   0  0  0  0  0  0  0  0  0  0  0  0
    5.1670   -5.8220    5.5750 C   0  0  2  0  0  0  0  0  0  0  0  0
    4.0960   -5.9840    4.4970 C   0  0  0  0  0  0  0  0  0  0  0  0
    4.4070   -6.4060    3.3740 O   0  0  0  0  0  0  0  0  0  0  0  0
    5.8450   -4.4560    5.4350 C   0  0  0  0  0  0  0  0  0  0  0  0
    6.8510   -4.1200    6.5450 C   0  0  0  0  0  0  0  0  0  0  0  0
    7.5900   -2.8180    6.2050 C   0  0  0  0  0  0  0  0  0  0  0  0
    6.1570   -3.9860    7.8920 C   0  0  0  0  0  0  0  0  0  0  0  0
    2.8490   -5.6540    4.8200 N   0  0  0  0  0  0  0  0  0  0  0  0
    1.7550   -5.7370    3.8550 C   0  0  2  0  0  0  0  0  0  0  0  0
    1.8630   -4.6450    2.7990 C   0  0  0  0  0  0  0  0  0  0  0  0
    2.6220   -3.6820    2.9530 O   0  0  0  0  0  0  0  0  0  0  0  0
    0.5090   -5.5410    4.7080 C   0  0  0  0  0  0  0  0  0  0  0  0
    0.9940   -4.7210    5.8680 C   0  0  0  0  0  0  0  0  0  0  0  0
    2.4080   -5.1870    6.1280 C   0  0  0  0  0  0  0  0  0  0  0  0
    1.0880   -4.7880    1.7310 N   0  0  0  0  0  0  0  0  0  0  0  0
    1.1030   -3.8190    0.6510 C   0  0  2  0  0  0  0  0  0  0  0  0
    0.5570   -2.4830    1.1310 C   0  0  0  0  0  0  0  0  0  0  0  0
   -0.6300   -2.3550    1.4270 O   0  0  0  0  0  0  0  0  0  0  0  0
    0.2760   -4.3170   -0.5200 C   0  0  0  0  0  0  0  0  0  0  0  0
    0.8420   -5.5730   -1.1730 C   0  0  0  0  0  0  0  0  0  0  0  0
   -0.1380   -6.0930   -2.2110 C   0  0  0  0  0  0  0  0  0  0  0  0
    2.1870   -5.2940   -1.8160 C   0  0  0  0  0  0  0  0  0  0  0  0
    1.4370   -1.4890    1.2080 N   0  0  0  0  0  0  0  0  0  0  0  0
    1.0520   -0.1530    1.6520 C   0  0  2  0  0  0  0  0  0  0  0  0
    0.7910    0.7550    0.4600 C   0  0  0  0  0  0  0  0  0  0  0  0
    1.4680    0.6760   -0.5620 O   0  0  0  0  0  0  0  0  0  0  0  0
    2.1460    0.4420    2.5220 C   0  0  0  0  0  0  0  0  0  0  0  0
    2.4000   -0.3330    3.8080 C   0  0  0  0  0  0  0  0  0  0  0  0
    3.5820    0.2780    4.5360 C   0  0  0  0  0  0  0  0  0  0  0  0
    1.1650   -0.3230    4.6960 C   0  0  0  0  0  0  0  0  0  0  0  0
   -0.1750    1.6380    0.6270 N   0  0  0  0  0  0  0  0  0  0  0  0
   -0.5150    2.5620   -0.4460 C   0  0  2  0  0  0  0  0  0  0  0  0
    0.6160    3.5560   -0.6710 C   0  0  0  0  0  0  0  0  0  0  0  0
    1.0770    4.2140    0.2610 O   0  0  0  0  0  0  0  0  0  0  0  0
   -1.7910    3.3210   -0.0910 C   0  0  0  0  0  0  0  0  0  0  0  0
   -2.9650    2.4060    0.0800 C   0  0  0  0  0  0  0  0  0  0  0  0
   -3.6750    1.8900   -0.9690 N   0  0  0  0  0  0  0  0  0  0  0  0
   -3.5280    1.9270    1.2100 C   0  0  0  0  0  0  0  0  0  0  0  0
   -4.6350    1.1260   -0.4920 C   0  0  0  0  0  0  0  0  0  0  0  0
   -4.5770    1.1200    0.8330 N   0  0  0  0  0  0  0  0  0  0  0  0
    1.0690    3.6620   -1.8900 N   0  0  0  0  0  0  0  0  0  0  0  0
    2.1670    4.5520   -2.2420 C   0  0  2  0  0  0  0  0  0  0  0  0
    1.8840    5.2830   -3.5470 C   0  0  0  0  0  0  0  0  0  0  0  0
    2.5910    5.1070   -4.5330 O   0  0  0  0  0  0  0  0  0  0  0  0
    3.4790    3.7730   -2.3360 C   0  0  0  0  0  0  0  0  0  0  0  0
    3.4440    2.6730   -3.3760 C   0  0  0  0  0  0  0  0  0  0  0  0
    4.8240    2.0730   -3.5660 C   0  0  0  0  0  0  0  0  0  0  0  0
    4.8340    1.1470   -4.7040 N   0  0  0  0  0  0  0  0  0  0  0  0
    5.9230    0.5100   -5.1260 C   0  0  0  0  0  0  0  0  0  0  0  0
    7.0820    0.6850   -4.5190 N   0  0  0  0  0  0  0  0  0  0  0  0
    5.8380   -0.2900   -6.1670 N   0  3  0  0  0  0  0  0  0  0  0  0
    0.8710    6.1190   -3.5660 N   0  0  0  0  0  0  0  0  0  0  0  0
    0.5030    6.8990   -4.7490 C   0  0  2  0  0  0  0  0  0  0  0  0
    0.0670    6.0100   -5.9110 C   0  0  0  0  0  0  0  0  0  0  0  0
    0.9050    5.4060   -6.5780 O   0  0  0  0  0  0  0  0  0  0  0  0
    1.6720    7.7850   -5.1880 C   0  0  0  0  0  0  0  0  0  0  0  0
    1.2650    8.8610   -6.5780 S   0  0  0  0  0  0  0  0  0  0  0  0
   -1.2320    5.9500   -6.1070 N   0  0  0  0  0  0  0  0  0  0  0  0
   -1.7740    5.1750   -7.2240 C   0  0  2  0  0  0  0  0  0  0  0  0
   -1.3830    3.7040   -7.1480 C   0  0  0  0  0  0  0  0  0  0  0  0
   -0.2450    3.3450   -7.4430 O   0  0  0  0  0  0  0  0  0  0  0  0
   -1.3170    5.7730   -8.5600 C   0  0  0  0  0  0  0  0  0  0  0  0
   -1.4150    7.5860   -8.6430 S   0  0  0  0  0  0  0  0  0  0  0  0
   -2.2640    2.8940   -6.7670 O   0  5  0  0  0  0  0  0  0  0  0  0
    7.8367  -10.6926    6.8509 H   0  0  0  0  0  0  0  0  0  0  0  0
    6.1867  -10.5274    7.0076 H   0  0  0  0  0  0  0  0  0  0  0  0
    7.2081   -9.4884    7.8149 H   0  0  0  0  0  0  0  0  0  0  0  0
    7.7574  -10.3882    7.6213 H   0  0  0  0  0  0  0  0  0  0  0  0
    7.9832   -8.5779    5.7654 H   0  0  0  0  0  0  0  0  0  0  0  0
    6.0246  -10.5383    4.6090 H   0  0  0  0  0  0  0  0  0  0  0  0
    6.7650   -9.2110    3.7079 H   0  0  0  0  0  0  0  0  0  0  0  0
    9.3313   -9.3813    3.2420 H   0  0  0  0  0  0  0  0  0  0  0  0
    7.6697  -12.7144    4.9660 H   0  0  0  0  0  0  0  0  0  0  0  0
   11.0104  -11.2038    3.0136 H   0  0  0  0  0  0  0  0  0  0  0  0
    7.0181   -6.7007    5.0445 H   0  0  0  0  0  0  0  0  0  0  0  0
    4.7015   -5.8812    6.5366 H   0  0  0  0  0  0  0  0  0  0  0  0
    5.0833   -3.7045    5.4374 H   0  0  0  0  0  0  0  0  0  0  0  0
    6.4029   -4.4886    4.5225 H   0  0  0  0  0  0  0  0  0  0  0  0
    7.5558   -4.9224    6.6110 H   0  0  0  0  0  0  0  0  0  0  0  0
    6.8859   -2.0151    6.1388 H   0  0  0  0  0  0  0  0  0  0  0  0
    8.0942   -2.9284    5.2677 H   0  0  0  0  0  0  0  0  0  0  0  0
    8.3050   -2.6031    6.9715 H   0  0  0  0  0  0  0  0  0  0  0  0
    5.4460   -3.1876    7.8490 H   0  0  0  0  0  0  0  0  0  0  0  0
    6.8840   -3.7759    8.6484 H   0  0  0  0  0  0  0  0  0  0  0  0
    5.6529   -4.9003    8.1260 H   0  0  0  0  0  0  0  0  0  0  0  0
    1.7536   -6.6609    3.3153 H   0  0  0  0  0  0  0  0  0  0  0  0
    0.1233   -6.4818    5.0412 H   0  0  0  0  0  0  0  0  0  0  0  0
   -0.2886   -5.0694    4.1729 H   0  0  0  0  0  0  0  0  0  0  0  0
    0.3803   -4.8900    6.7281 H   0  0  0  0  0  0  0  0  0  0  0  0
    0.9536   -3.6726    5.6578 H   0  0  0  0  0  0  0  0  0  0  0  0
    3.0204   -4.3808    6.4743 H   0  0  0  0  0  0  0  0  0  0  0  0
    2.4696   -5.9400    6.8857 H   0  0  0  0  0  0  0  0  0  0  0  0
    0.4904   -5.5680    1.6703 H   0  0  0  0  0  0  0  0  0  0  0  0
    2.1159   -3.6888    0.3316 H   0  0  0  0  0  0  0  0  0  0  0  0
   -0.7117   -4.5330   -0.1697 H   0  0  0  0  0  0  0  0  0  0  0  0
    0.2836   -3.5457   -1.2616 H   0  0  0  0  0  0  0  0  0  0  0  0
    0.9864   -6.3152   -0.4159 H   0  0  0  0  0  0  0  0  0  0  0  0
   -0.2826   -5.3510   -2.9682 H   0  0  0  0  0  0  0  0  0  0  0  0
   -1.0743   -6.3097   -1.7405 H   0  0  0  0  0  0  0  0  0  0  0  0
    0.2527   -6.9846   -2.6553 H   0  0  0  0  0  0  0  0  0  0  0  0
    2.0707   -4.5529   -2.5790 H   0  0  0  0  0  0  0  0  0  0  0  0
    2.5691   -6.1948   -2.2490 H   0  0  0  0  0  0  0  0  0  0  0  0
    2.8701   -4.9374   -1.0736 H   0  0  0  0  0  0  0  0  0  0  0  0
    2.3741   -1.6590    0.9586 H   0  0  0  0  0  0  0  0  0  0  0  0
    0.1510   -0.2343    2.2234 H   0  0  0  0  0  0  0  0  0  0  0  0
    1.8648    1.4415    2.7807 H   0  0  0  0  0  0  0  0  0  0  0  0
    3.0511    0.4049    1.9525 H   0  0  0  0  0  0  0  0  0  0  0  0
    2.6211   -1.3513    3.5649 H   0  0  0  0  0  0  0  0  0  0  0  0
    3.3629    1.2965    4.7801 H   0  0  0  0  0  0  0  0  0  0  0  0
    4.4467    0.2401    3.9069 H   0  0  0  0  0  0  0  0  0  0  0  0
    3.7703   -0.2715    5.4346 H   0  0  0  0  0  0  0  0  0  0  0  0
    0.9203    0.6859    4.9553 H   0  0  0  0  0  0  0  0  0  0  0  0
    1.3615   -0.8825    5.5866 H   0  0  0  0  0  0  0  0  0  0  0  0
    0.3444   -0.7653    4.1707 H   0  0  0  0  0  0  0  0  0  0  0  0
   -0.6671    1.6723    1.4790 H   0  0  0  0  0  0  0  0  0  0  0  0
   -0.6684    1.9991   -1.3429 H   0  0  0  0  0  0  0  0  0  0  0  0
   -2.0075    4.0165   -0.8748 H   0  0  0  0  0  0  0  0  0  0  0  0
   -1.6268    3.8220    0.8401 H   0  0  0  0  0  0  0  0  0  0  0  0
   -3.4976    2.0614   -1.9221 H   0  0  0  0  0  0  0  0  0  0  0  0
   -3.2275    2.1286    2.1765 H   0  0  0  0  0  0  0  0  0  0  0  0
   -5.3256    0.6116   -1.0608 H   0  0  0  0  0  0  0  0  0  0  0  0
    0.6529    3.1199   -2.5987 H   0  0  0  0  0  0  0  0  0  0  0  0
    2.2602    5.2845   -1.4676 H   0  0  0  0  0  0  0  0  0  0  0  0
    4.2630    4.4558   -2.5889 H   0  0  0  0  0  0  0  0  0  0  0  0
    3.6428    3.3086   -1.3861 H   0  0  0  0  0  0  0  0  0  0  0  0
    2.7689    1.9073   -3.0553 H   0  0  0  0  0  0  0  0  0  0  0  0
    3.1177    3.0886   -4.3065 H   0  0  0  0  0  0  0  0  0  0  0  0
    5.5271    2.8591   -3.7465 H   0  0  0  0  0  0  0  0  0  0  0  0
    5.0897    1.5336   -2.6809 H   0  0  0  0  0  0  0  0  0  0  0  0
    3.9880    0.9883   -5.1818 H   0  0  0  0  0  0  0  0  0  0  0  0
    7.8821    0.2089   -4.8390 H   0  0  0  0  0  0  0  0  0  0  0  0
    7.1463    1.2916   -3.7462 H   0  0  0  0  0  0  0  0  0  0  0  0
    4.9730   -0.4197   -6.6188 H   0  0  0  0  0  0  0  0  0  0  0  0
    6.6394   -0.7590   -6.4941 H   0  0  0  0  0  0  0  0  0  0  0  0
    6.1174    0.6086   -5.8776 H   0  0  0  0  0  0  0  0  0  0  0  0
    0.3347    6.2259   -2.7473 H   0  0  0  0  0  0  0  0  0  0  0  0
   -0.3302    7.5119   -4.4750 H   0  0  0  0  0  0  0  0  0  0  0  0
    1.9657    8.3956   -4.3599 H   0  0  0  0  0  0  0  0  0  0  0  0
    2.4602    7.1361   -5.5082 H   0  0  0  0  0  0  0  0  0  0  0  0
    0.2635    9.7077   -6.2178 H   0  0  0  0  0  0  0  0  0  0  0  0
   -1.8421    6.4282   -5.5001 H   0  0  0  0  0  0  0  0  0  0  0  0
   -2.8406    5.2277   -7.1569 H   0  0  0  0  0  0  0  0  0  0  0  0
   -0.2999    5.4848   -8.7253 H   0  0  0  0  0  0  0  0  0  0  0  0
   -1.9837    5.3964   -9.3074 H   0  0  0  0  0  0  0  0  0  0  0  0
   -0.5852    8.1280   -7.7117 H   0  0  0  0  0  0  0  0  0  0  0  0
  1 76  1  0  0  0  0
  1 77  1  0  0  0  0
  1 78  1  0  0  0  0
  1 79  1  0  0  0  0
  2  3  1  0  0  0  0
  2  1  1  0  0  0  0
  2 80  1  6  0  0  0
  3  4  2  0  0  0  0
  5  2  1  0  0  0  0
  5 81  1  0  0  0  0
  5 82  1  0  0  0  0
  6  8  2  0  0  0  0
  6  5  1  0  0  0  0
  7  6  1  0  0  0  0
  7 83  1  0  0  0  0
  8 84  1  0  0  0  0
  9  7  1  0  0  0  0
  9 10  2  0  0  0  0
  9 85  1  0  0  0  0
 10  8  1  0  0  0  0
 11 12  1  0  0  0  0
 11  3  1  0  0  0  0
 11 86  1  0  0  0  0
 12 87  1  1  0  0  0
 13 19  1  0  0  0  0
 13 12  1  0  0  0  0
 14 13  2  0  0  0  0
 15 12  1  0  0  0  0
 15 16  1  0  0  0  0
 15 88  1  0  0  0  0
 15 89  1  0  0  0  0
 16 18  1  0  0  0  0
 16 90  1  0  0  0  0
 17 16  1  0  0  0  0
 17 91  1  0  0  0  0
 17 92  1  0  0  0  0
 17 93  1  0  0  0  0
 18 94  1  0  0  0  0
 18 95  1  0  0  0  0
 18 96  1  0  0  0  0
 19 25  1  0  0  0  0
 20 23  1  0  0  0  0
 20 19  1  0  0  0  0
 20 97  1  6  0  0  0
 21 22  2  0  0  0  0
 21 20  1  0  0  0  0
 23 24  1  0  0  0  0
 23 98  1  0  0  0  0
 23 99  1  0  0  0  0
 24 25  1  0  0  0  0
 24100  1  0  0  0  0
 24101  1  0  0  0  0
 25102  1  0  0  0  0
 25103  1  0  0  0  0
 26 21  1  0  0  0  0
 26104  1  0  0  0  0
 27 28  1  0  0  0  0
 27 26  1  0  0  0  0
 27105  1  6  0  0  0
 28 34  1  0  0  0  0
 28 29  2  0  0  0  0
 30 27  1  0  0  0  0
 30106  1  0  0  0  0
 30107  1  0  0  0  0
 31 30  1  0  0  0  0
 31108  1  0  0  0  0
 32 31  1  0  0  0  0
 32109  1  0  0  0  0
 32110  1  0  0  0  0
 32111  1  0  0  0  0
 33 31  1  0  0  0  0
 33112  1  0  0  0  0
 33113  1  0  0  0  0
 33114  1  0  0  0  0
 34 35  1  0  0  0  0
 34115  1  0  0  0  0
 35 38  1  0  0  0  0
 35116  1  1  0  0  0
 36 42  1  0  0  0  0
 36 35  1  0  0  0  0
 37 36  2  0  0  0  0
 38 39  1  0  0  0  0
 38117  1  0  0  0  0
 38118  1  0  0  0  0
 39 40  1  0  0  0  0
 39 41  1  0  0  0  0
 39119  1  0  0  0  0
 40120  1  0  0  0  0
 40121  1  0  0  0  0
 40122  1  0  0  0  0
 41123  1  0  0  0  0
 41124  1  0  0  0  0
 41125  1  0  0  0  0
 42126  1  0  0  0  0
 43 46  1  0  0  0  0
 43 42  1  0  0  0  0
 43127  1  6  0  0  0
 44 43  1  0  0  0  0
 44 45  2  0  0  0  0
 46 47  1  0  0  0  0
 46128  1  0  0  0  0
 46129  1  0  0  0  0
 47 49  2  0  0  0  0
 48 50  1  0  0  0  0
 48 47  1  0  0  0  0
 48130  1  0  0  0  0
 49131  1  0  0  0  0
 50 51  2  0  0  0  0
 50132  1  0  0  0  0
 51 49  1  0  0  0  0
 52 44  1  0  0  0  0
 52133  1  0  0  0  0
 53 52  1  0  0  0  0
 53134  1  1  0  0  0
 54 53  1  0  0  0  0
 55 54  2  0  0  0  0
 56 53  1  0  0  0  0
 56135  1  0  0  0  0
 56136  1  0  0  0  0
 57 56  1  0  0  0  0
 57137  1  0  0  0  0
 57138  1  0  0  0  0
 58 57  1  0  0  0  0
 58139  1  0  0  0  0
 58140  1  0  0  0  0
 59 58  1  0  0  0  0
 59141  1  0  0  0  0
 60 59  1  0  0  0  0
 60 61  1  0  0  0  0
 61142  1  0  0  0  0
 61143  1  0  0  0  0
 62 60  2  0  0  0  0
 62144  1  0  0  0  0
 62145  1  0  0  0  0
 62146  1  0  0  0  0
 63 54  1  0  0  0  0
 63147  1  0  0  0  0
 64 63  1  0  0  0  0
 64148  1  1  0  0  0
 65 64  1  0  0  0  0
 66 65  2  0  0  0  0
 67 64  1  0  0  0  0
 67149  1  0  0  0  0
 67150  1  0  0  0  0
 68 67  1  0  0  0  0
 68151  1  0  0  0  0
 69 65  1  0  0  0  0
 69152  1  0  0  0  0
 70 71  1  0  0  0  0
 70 69  1  0  0  0  0
 70153  1  1  0  0  0
 71 75  1  0  0  0  0
 72 71  2  0  0  0  0
 73 70  1  0  0  0  0
 73154  1  0  0  0  0
 73155  1  0  0  0  0
 74 73  1  0  0  0  0
 74156  1  0  0  0  0
M  CHG  3   1   1  62   1  75  -1
M  END
>  <REMARK>
   1 CREATED WITH OPENMM 8.5.2, 2026-07-29

$$$$
