/mnt/hpc/home/25menglei/25wenshaohua/MD/yzy/docking/dc/peptides/pdb/hvlllrqca.pdb
 OpenBabel07292620093D

159159  0  0  1  0  0  0  0  0999 V2000
    2.6090   -7.8570    2.7600 N   0  3  0  0  0  0  0  0  0  0  0  0
    3.4050   -6.6220    2.6690 C   0  0  2  0  0  0  0  0  0  0  0  0
    2.5060   -5.3860    2.6130 C   0  0  0  0  0  0  0  0  0  0  0  0
    1.7100   -5.2400    1.6940 O   0  0  0  0  0  0  0  0  0  0  0  0
    4.2680   -6.6660    1.4270 C   0  0  0  0  0  0  0  0  0  0  0  0
    5.7020   -6.3240    1.7130 C   0  0  2  0  0  0  0  0  0  0  0  0
    6.0830   -5.2760    2.5070 N   0  0  0  0  0  0  0  0  0  0  0  0
    6.8440   -6.9250    1.2810 C   0  0  0  0  0  0  0  0  0  0  0  0
    7.4110   -5.2410    2.5550 C   0  0  0  0  0  0  0  0  0  0  0  0
    7.8880   -6.2280    1.8170 N   0  0  0  0  0  0  0  0  0  0  0  0
    2.6360   -4.5250    3.6030 N   0  0  0  0  0  0  0  0  0  0  0  0
    1.8310   -3.3100    3.6740 C   0  0  2  0  0  0  0  0  0  0  0  0
    2.5430   -2.1250    3.0360 C   0  0  0  0  0  0  0  0  0  0  0  0
    1.9000   -1.2060    2.5360 O   0  0  0  0  0  0  0  0  0  0  0  0
    1.5010   -2.9780    5.1310 C   0  0  0  0  0  0  0  0  0  0  0  0
    0.8030   -1.6380    5.2320 C   0  0  0  0  0  0  0  0  0  0  0  0
    0.6470   -4.0720    5.7310 C   0  0  0  0  0  0  0  0  0  0  0  0
    3.8610   -2.1460    3.0710 N   0  0  0  0  0  0  0  0  0  0  0  0
    4.6530   -1.0580    2.5160 C   0  0  2  0  0  0  0  0  0  0  0  0
    4.3740   -0.8610    1.0370 C   0  0  0  0  0  0  0  0  0  0  0  0
    4.0340    0.2320    0.5930 O   0  0  0  0  0  0  0  0  0  0  0  0
    6.1360   -1.3280    2.7560 C   0  0  0  0  0  0  0  0  0  0  0  0
    6.7960   -0.2660    3.6060 C   0  0  0  0  0  0  0  0  0  0  0  0
    6.7030    1.0870    2.9310 C   0  0  0  0  0  0  0  0  0  0  0  0
    6.1350   -0.2290    4.9760 C   0  0  0  0  0  0  0  0  0  0  0  0
    4.5160   -1.9320    0.2680 N   0  0  0  0  0  0  0  0  0  0  0  0
    4.2710   -1.8550   -1.1650 C   0  0  2  0  0  0  0  0  0  0  0  0
    2.8180   -1.4750   -1.4360 C   0  0  0  0  0  0  0  0  0  0  0  0
    2.5230   -0.6780   -2.3120 O   0  0  0  0  0  0  0  0  0  0  0  0
    4.6040   -3.1910   -1.8130 C   0  0  0  0  0  0  0  0  0  0  0  0
    3.7990   -4.3610   -1.2790 C   0  0  0  0  0  0  0  0  0  0  0  0
    2.4890   -4.4900   -2.0530 C   0  0  0  0  0  0  0  0  0  0  0  0
    4.5950   -5.6460   -1.4130 C   0  0  0  0  0  0  0  0  0  0  0  0
    1.9190   -2.0570   -0.6740 N   0  0  0  0  0  0  0  0  0  0  0  0
    0.4990   -1.7700   -0.8300 C   0  0  2  0  0  0  0  0  0  0  0  0
    0.1690   -0.3640   -0.3570 C   0  0  0  0  0  0  0  0  0  0  0  0
   -0.6950    0.3020   -0.9190 O   0  0  0  0  0  0  0  0  0  0  0  0
   -0.3120   -2.7900   -0.0310 C   0  0  0  0  0  0  0  0  0  0  0  0
   -1.5910   -2.2470    0.5770 C   0  0  0  0  0  0  0  0  0  0  0  0
   -2.6150   -1.9380   -0.5120 C   0  0  0  0  0  0  0  0  0  0  0  0
   -2.1790   -3.2600    1.5620 C   0  0  0  0  0  0  0  0  0  0  0  0
    0.8520    0.0670    0.6720 N   0  0  0  0  0  0  0  0  0  0  0  0
    0.6240    1.3860    1.2350 C   0  0  2  0  0  0  0  0  0  0  0  0
    0.7630    2.4760    0.1790 C   0  0  0  0  0  0  0  0  0  0  0  0
   -0.0150    3.4250    0.1610 O   0  0  0  0  0  0  0  0  0  0  0  0
    1.6020    1.6060    2.3910 C   0  0  0  0  0  0  0  0  0  0  0  0
    1.9000    3.0600    2.6490 C   0  0  0  0  0  0  0  0  0  0  0  0
    3.2610    3.3730    2.0230 C   0  0  0  0  0  0  0  0  0  0  0  0
    3.7680    4.6550    2.5090 N   0  0  0  0  0  0  0  0  0  0  0  0
    4.8150    5.2600    1.9980 C   0  0  0  0  0  0  0  0  0  0  0  0
    5.4730    4.7150    0.9930 N   0  3  0  0  0  0  0  0  0  0  0  0
    5.2120    6.4150    2.4780 N   0  0  0  0  0  0  0  0  0  0  0  0
    1.7300    2.3580   -0.6830 N   0  0  0  0  0  0  0  0  0  0  0  0
    1.9550    3.3420   -1.7410 C   0  0  2  0  0  0  0  0  0  0  0  0
    1.2180    2.9680   -3.0130 C   0  0  0  0  0  0  0  0  0  0  0  0
    0.7320    3.8360   -3.7330 O   0  0  0  0  0  0  0  0  0  0  0  0
    3.4480    3.4900   -2.0090 C   0  0  0  0  0  0  0  0  0  0  0  0
    4.0890    2.2530   -2.6090 C   0  0  0  0  0  0  0  0  0  0  0  0
    4.2680    2.4260   -4.1120 C   0  0  0  0  0  0  0  0  0  0  0  0
    3.9260    1.5470   -4.9030 O   0  0  0  0  0  0  0  0  0  0  0  0
    4.8080    3.5560   -4.5250 N   0  0  0  0  0  0  0  0  0  0  0  0
    1.1440    1.6690   -3.2920 N   0  0  0  0  0  0  0  0  0  0  0  0
    0.4530    1.1830   -4.4690 C   0  0  2  0  0  0  0  0  0  0  0  0
   -1.0540    1.1930   -4.2650 C   0  0  0  0  0  0  0  0  0  0  0  0
   -1.8090    1.0650   -5.2200 O   0  0  0  0  0  0  0  0  0  0  0  0
    0.9140   -0.2440   -4.7960 C   0  0  0  0  0  0  0  0  0  0  0  0
    2.5600   -0.2850   -5.5350 S   0  0  0  0  0  0  0  0  0  0  0  0
   -1.4600    1.3320   -3.0340 N   0  0  0  0  0  0  0  0  0  0  0  0
   -2.8750    1.3360   -2.6850 C   0  0  2  0  0  0  0  0  0  0  0  0
   -3.7050    2.0140   -3.7710 C   0  0  0  0  0  0  0  0  0  0  0  0
   -4.4530    1.3060   -4.4830 O   0  0  0  0  0  0  0  0  0  0  0  0
   -3.0700    2.0380   -1.3540 C   0  0  0  0  0  0  0  0  0  0  0  0
   -3.6300    3.2070   -3.9000 O   0  5  0  0  0  0  0  0  0  0  0  0
    3.2339   -8.6624    2.7957 H   0  0  0  0  0  0  0  0  0  0  0  0
    2.0036   -7.9323    1.9425 H   0  0  0  0  0  0  0  0  0  0  0  0
    2.0380   -7.8320    3.6048 H   0  0  0  0  0  0  0  0  0  0  0  0
    2.3966   -8.5399    2.0327 H   0  0  0  0  0  0  0  0  0  0  0  0
    4.0183   -6.5562    3.5433 H   0  0  0  0  0  0  0  0  0  0  0  0
    4.2258   -7.6523    1.0142 H   0  0  0  0  0  0  0  0  0  0  0  0
    3.8896   -5.9370    0.7412 H   0  0  0  0  0  0  0  0  0  0  0  0
    4.8417   -6.8331    1.3313 H   0  0  0  0  0  0  0  0  0  0  0  0
    5.4750   -4.6523    2.9659 H   0  0  0  0  0  0  0  0  0  0  0  0
    6.8929   -6.8965    0.2125 H   0  0  0  0  0  0  0  0  0  0  0  0
    6.8740   -7.9510    1.5833 H   0  0  0  0  0  0  0  0  0  0  0  0
    7.9759   -4.5564    3.0814 H   0  0  0  0  0  0  0  0  0  0  0  0
    3.2934   -4.7066    4.3130 H   0  0  0  0  0  0  0  0  0  0  0  0
    0.9280   -3.4927    3.1298 H   0  0  0  0  0  0  0  0  0  0  0  0
    2.4157   -2.9153    5.6826 H   0  0  0  0  0  0  0  0  0  0  0  0
   -0.1174   -1.6733    4.6874 H   0  0  0  0  0  0  0  0  0  0  0  0
    1.4319   -0.8764    4.8205 H   0  0  0  0  0  0  0  0  0  0  0  0
    0.6013   -1.4175    6.2594 H   0  0  0  0  0  0  0  0  0  0  0  0
   -0.2720   -4.1454    5.1879 H   0  0  0  0  0  0  0  0  0  0  0  0
    0.4388   -3.8409    6.7548 H   0  0  0  0  0  0  0  0  0  0  0  0
    1.1698   -5.0039    5.6749 H   0  0  0  0  0  0  0  0  0  0  0  0
    4.3195   -2.9144    3.4815 H   0  0  0  0  0  0  0  0  0  0  0  0
    4.3751   -0.1521    3.0130 H   0  0  0  0  0  0  0  0  0  0  0  0
    6.6338   -1.3663    1.8096 H   0  0  0  0  0  0  0  0  0  0  0  0
    6.2128   -2.2558    3.2834 H   0  0  0  0  0  0  0  0  0  0  0  0
    7.8321   -0.5050    3.7253 H   0  0  0  0  0  0  0  0  0  0  0  0
    5.6742    1.3501    2.7996 H   0  0  0  0  0  0  0  0  0  0  0  0
    7.1846    1.0433    1.9765 H   0  0  0  0  0  0  0  0  0  0  0  0
    7.1845    1.8233    3.5401 H   0  0  0  0  0  0  0  0  0  0  0  0
    5.0978    0.0095    4.8653 H   0  0  0  0  0  0  0  0  0  0  0  0
    6.6095    0.5152    5.5810 H   0  0  0  0  0  0  0  0  0  0  0  0
    6.2329   -1.1857    5.4452 H   0  0  0  0  0  0  0  0  0  0  0  0
    4.7899   -2.7878    0.6702 H   0  0  0  0  0  0  0  0  0  0  0  0
    4.8981   -1.0981   -1.5878 H   0  0  0  0  0  0  0  0  0  0  0  0
    4.4197   -3.1091   -2.8638 H   0  0  0  0  0  0  0  0  0  0  0  0
    5.6295   -3.3950   -1.5857 H   0  0  0  0  0  0  0  0  0  0  0  0
    3.5838   -4.1863   -0.2455 H   0  0  0  0  0  0  0  0  0  0  0  0
    2.7014   -4.6648   -3.0870 H   0  0  0  0  0  0  0  0  0  0  0  0
    1.9249   -3.5863   -1.9526 H   0  0  0  0  0  0  0  0  0  0  0  0
    1.9227   -5.3092   -1.6617 H   0  0  0  0  0  0  0  0  0  0  0  0
    4.8126   -5.8248   -2.4453 H   0  0  0  0  0  0  0  0  0  0  0  0
    4.0235   -6.4619   -1.0224 H   0  0  0  0  0  0  0  0  0  0  0  0
    5.5102   -5.5573   -0.8658 H   0  0  0  0  0  0  0  0  0  0  0  0
    2.2101   -2.6980    0.0142 H   0  0  0  0  0  0  0  0  0  0  0  0
    0.2488   -1.8372   -1.8682 H   0  0  0  0  0  0  0  0  0  0  0  0
    0.3043   -3.1577    0.7626 H   0  0  0  0  0  0  0  0  0  0  0  0
   -0.6060   -3.5512   -0.7232 H   0  0  0  0  0  0  0  0  0  0  0  0
   -1.3566   -1.3422    1.0979 H   0  0  0  0  0  0  0  0  0  0  0  0
   -2.8567   -2.8369   -1.0397 H   0  0  0  0  0  0  0  0  0  0  0  0
   -2.2052   -1.2230   -1.1944 H   0  0  0  0  0  0  0  0  0  0  0  0
   -3.5009   -1.5375   -0.0652 H   0  0  0  0  0  0  0  0  0  0  0  0
   -2.4144   -4.1661    1.0438 H   0  0  0  0  0  0  0  0  0  0  0  0
   -3.0689   -2.8574    1.9989 H   0  0  0  0  0  0  0  0  0  0  0  0
   -1.4648   -3.4648    2.3320 H   0  0  0  0  0  0  0  0  0  0  0  0
    1.5360   -0.5160    1.0738 H   0  0  0  0  0  0  0  0  0  0  0  0
   -0.3793    1.4417    1.6026 H   0  0  0  0  0  0  0  0  0  0  0  0
    2.5197    1.1068    2.1595 H   0  0  0  0  0  0  0  0  0  0  0  0
    1.1426    1.2144    3.2745 H   0  0  0  0  0  0  0  0  0  0  0  0
    1.1441    3.6719    2.2028 H   0  0  0  0  0  0  0  0  0  0  0  0
    1.9158    3.2590    3.7002 H   0  0  0  0  0  0  0  0  0  0  0  0
    3.9536    2.5998    2.2824 H   0  0  0  0  0  0  0  0  0  0  0  0
    3.1478    3.4272    0.9604 H   0  0  0  0  0  0  0  0  0  0  0  0
    3.2995    5.0875    3.2591 H   0  0  0  0  0  0  0  0  0  0  0  0
    6.2577    5.1721    0.6128 H   0  0  0  0  0  0  0  0  0  0  0  0
    5.1794    3.8511    0.6232 H   0  0  0  0  0  0  0  0  0  0  0  0
    5.2339    3.7624    1.0613 H   0  0  0  0  0  0  0  0  0  0  0  0
    5.9978    6.8648    2.0914 H   0  0  0  0  0  0  0  0  0  0  0  0
    4.7241    6.8317    3.2247 H   0  0  0  0  0  0  0  0  0  0  0  0
    2.3304    1.5802   -0.6210 H   0  0  0  0  0  0  0  0  0  0  0  0
    1.5665    4.2819   -1.4086 H   0  0  0  0  0  0  0  0  0  0  0  0
    3.5896    4.3056   -2.6869 H   0  0  0  0  0  0  0  0  0  0  0  0
    3.9190    3.6567   -1.0628 H   0  0  0  0  0  0  0  0  0  0  0  0
    5.0453    2.0958   -2.1555 H   0  0  0  0  0  0  0  0  0  0  0  0
    3.4547    1.4103   -2.4289 H   0  0  0  0  0  0  0  0  0  0  0  0
    4.9439    3.7138   -5.4872 H   0  0  0  0  0  0  0  0  0  0  0  0
    5.0752    4.2418   -3.8711 H   0  0  0  0  0  0  0  0  0  0  0  0
    1.5693    1.0223   -2.6836 H   0  0  0  0  0  0  0  0  0  0  0  0
    0.6902    1.8354   -5.2833 H   0  0  0  0  0  0  0  0  0  0  0  0
    0.9294   -0.8155   -3.8916 H   0  0  0  0  0  0  0  0  0  0  0  0
    0.2274   -0.6529   -5.5076 H   0  0  0  0  0  0  0  0  0  0  0  0
    3.4637    0.2284   -4.6578 H   0  0  0  0  0  0  0  0  0  0  0  0
   -0.7912    1.4373   -2.3192 H   0  0  0  0  0  0  0  0  0  0  0  0
   -3.2093    0.3230   -2.6020 H   0  0  0  0  0  0  0  0  0  0  0  0
   -2.7367    3.0517   -1.4332 H   0  0  0  0  0  0  0  0  0  0  0  0
   -2.5036    1.5343   -0.5987 H   0  0  0  0  0  0  0  0  0  0  0  0
   -4.1072    2.0231   -1.0915 H   0  0  0  0  0  0  0  0  0  0  0  0
  1 74  1  0  0  0  0
  1 75  1  0  0  0  0
  1 76  1  0  0  0  0
  1 77  1  0  0  0  0
  2  1  1  0  0  0  0
  2 78  1  1  0  0  0
  3  2  1  0  0  0  0
  3 11  1  0  0  0  0
  4  3  2  0  0  0  0
  5  6  1  0  0  0  0
  5  2  1  0  0  0  0
  5 79  1  0  0  0  0
  5 80  1  0  0  0  0
  6  7  1  0  0  0  0
  6 81  1  1  0  0  0
  7  9  1  0  0  0  0
  7 82  1  0  0  0  0
  8  6  1  0  0  0  0
  8 10  1  0  0  0  0
  8 83  1  0  0  0  0
  8 84  1  0  0  0  0
  9 85  1  0  0  0  0
 10  9  2  0  0  0  0
 11 12  1  0  0  0  0
 11 86  1  0  0  0  0
 12 15  1  0  0  0  0
 12 87  1  6  0  0  0
 13 18  1  0  0  0  0
 13 12  1  0  0  0  0
 14 13  2  0  0  0  0
 15 16  1  0  0  0  0
 15 17  1  0  0  0  0
 15 88  1  0  0  0  0
 16 89  1  0  0  0  0
 16 90  1  0  0  0  0
 16 91  1  0  0  0  0
 17 92  1  0  0  0  0
 17 93  1  0  0  0  0
 17 94  1  0  0  0  0
 18 95  1  0  0  0  0
 19 22  1  0  0  0  0
 19 18  1  0  0  0  0
 19 96  1  1  0  0  0
 20 19  1  0  0  0  0
 21 20  2  0  0  0  0
 22 23  1  0  0  0  0
 22 97  1  0  0  0  0
 22 98  1  0  0  0  0
 23 25  1  0  0  0  0
 23 99  1  0  0  0  0
 24 23  1  0  0  0  0
 24100  1  0  0  0  0
 24101  1  0  0  0  0
 24102  1  0  0  0  0
 25103  1  0  0  0  0
 25104  1  0  0  0  0
 25105  1  0  0  0  0
 26 20  1  0  0  0  0
 26106  1  0  0  0  0
 27 26  1  0  0  0  0
 27107  1  6  0  0  0
 28 27  1  0  0  0  0
 28 34  1  0  0  0  0
 29 28  2  0  0  0  0
 30 31  1  0  0  0  0
 30 27  1  0  0  0  0
 30108  1  0  0  0  0
 30109  1  0  0  0  0
 31110  1  0  0  0  0
 32 31  1  0  0  0  0
 32111  1  0  0  0  0
 32112  1  0  0  0  0
 32113  1  0  0  0  0
 33 31  1  0  0  0  0
 33114  1  0  0  0  0
 33115  1  0  0  0  0
 33116  1  0  0  0  0
 34117  1  0  0  0  0
 35 34  1  0  0  0  0
 35 36  1  0  0  0  0
 35 38  1  0  0  0  0
 35118  1  6  0  0  0
 36 42  1  0  0  0  0
 37 36  2  0  0  0  0
 38 39  1  0  0  0  0
 38119  1  0  0  0  0
 38120  1  0  0  0  0
 39 41  1  0  0  0  0
 39121  1  0  0  0  0
 40 39  1  0  0  0  0
 40122  1  0  0  0  0
 40123  1  0  0  0  0
 40124  1  0  0  0  0
 41125  1  0  0  0  0
 41126  1  0  0  0  0
 41127  1  0  0  0  0
 42 43  1  0  0  0  0
 42128  1  0  0  0  0
 43 46  1  0  0  0  0
 43129  1  1  0  0  0
 44 43  1  0  0  0  0
 45 44  2  0  0  0  0
 46 47  1  0  0  0  0
 46130  1  0  0  0  0
 46131  1  0  0  0  0
 47132  1  0  0  0  0
 47133  1  0  0  0  0
 48 49  1  0  0  0  0
 48 47  1  0  0  0  0
 48134  1  0  0  0  0
 48135  1  0  0  0  0
 49136  1  0  0  0  0
 50 52  1  0  0  0  0
 50 49  1  0  0  0  0
 51 50  2  0  0  0  0
 51137  1  0  0  0  0
 51138  1  0  0  0  0
 51139  1  0  0  0  0
 52140  1  0  0  0  0
 52141  1  0  0  0  0
 53 44  1  0  0  0  0
 53142  1  0  0  0  0
 54 53  1  0  0  0  0
 54143  1  1  0  0  0
 55 54  1  0  0  0  0
 56 55  2  0  0  0  0
 57 54  1  0  0  0  0
 57144  1  0  0  0  0
 57145  1  0  0  0  0
 58 57  1  0  0  0  0
 58146  1  0  0  0  0
 58147  1  0  0  0  0
 59 58  1  0  0  0  0
 60 59  2  0  0  0  0
 61 59  1  0  0  0  0
 61148  1  0  0  0  0
 61149  1  0  0  0  0
 62 55  1  0  0  0  0
 62150  1  0  0  0  0
 63 64  1  0  0  0  0
 63 62  1  0  0  0  0
 63151  1  6  0  0  0
 64 68  1  0  0  0  0
 65 64  2  0  0  0  0
 66 63  1  0  0  0  0
 66152  1  0  0  0  0
 66153  1  0  0  0  0
 67 66  1  0  0  0  0
 67154  1  0  0  0  0
 68 69  1  0  0  0  0
 68155  1  0  0  0  0
 69 72  1  0  0  0  0
 69156  1  1  0  0  0
 70 69  1  0  0  0  0
 71 70  2  0  0  0  0
 72157  1  0  0  0  0
 72158  1  0  0  0  0
 72159  1  0  0  0  0
 73 70  1  0  0  0  0
M  CHG  3   1   1  51   1  73  -1
M  END
>  <REMARK>
   1 CREATED WITH OPENMM 8.5.2, 2026-07-29

$$$$
