/mnt/hpc/home/25menglei/25wenshaohua/MD/yzy/docking/dc/peptides/pdb/llhlpkrtt.pdb
 OpenBabel07292620093D

168169  0  0  1  0  0  0  0  0999 V2000
   11.2320   -8.3360    1.3820 N   0  3  0  0  0  0  0  0  0  0  0  0
   10.7360   -6.9490    1.3500 C   0  0  2  0  0  0  0  0  0  0  0  0
    9.3170   -6.9160    0.8010 C   0  0  0  0  0  0  0  0  0  0  0  0
    9.1080   -7.1320   -0.3910 O   0  0  0  0  0  0  0  0  0  0  0  0
   11.6680   -6.0760    0.5050 C   0  0  0  0  0  0  0  0  0  0  0  0
   11.6140   -4.5820    0.8200 C   0  0  0  0  0  0  0  0  0  0  0  0
   12.8160   -3.8750    0.2200 C   0  0  0  0  0  0  0  0  0  0  0  0
   10.3240   -3.9390    0.3240 C   0  0  0  0  0  0  0  0  0  0  0  0
    8.3230   -6.6450    1.6600 N   0  0  0  0  0  0  0  0  0  0  0  0
    6.9280   -6.5680    1.2470 C   0  0  2  0  0  0  0  0  0  0  0  0
    6.3580   -5.1890    1.5630 C   0  0  0  0  0  0  0  0  0  0  0  0
    6.0740   -4.8740    2.7140 O   0  0  0  0  0  0  0  0  0  0  0  0
    6.1080   -7.6400    1.9490 C   0  0  0  0  0  0  0  0  0  0  0  0
    6.4270   -9.0720    1.5160 C   0  0  0  0  0  0  0  0  0  0  0  0
    7.6400   -9.6100    2.2630 C   0  0  0  0  0  0  0  0  0  0  0  0
    5.2220   -9.9740    1.7510 C   0  0  0  0  0  0  0  0  0  0  0  0
    6.1850   -4.3760    0.5340 N   0  0  0  0  0  0  0  0  0  0  0  0
    5.6320   -3.0330    0.6890 C   0  0  2  0  0  0  0  0  0  0  0  0
    4.4540   -2.8500   -0.2620 C   0  0  0  0  0  0  0  0  0  0  0  0
    4.6180   -2.4240   -1.4080 O   0  0  0  0  0  0  0  0  0  0  0  0
    6.7120   -1.9890    0.4150 C   0  0  0  0  0  0  0  0  0  0  0  0
    6.2760   -0.6060    0.7940 C   0  0  0  0  0  0  0  0  0  0  0  0
    5.6490    0.2550   -0.0740 N   0  0  0  0  0  0  0  0  0  0  0  0
    6.3990    0.0660    1.9660 C   0  0  0  0  0  0  0  0  0  0  0  0
    5.4030    1.3910    0.5690 C   0  0  0  0  0  0  0  0  0  0  0  0
    5.8380    1.3060    1.8140 N   0  0  0  0  0  0  0  0  0  0  0  0
    3.2910   -3.2120    0.2170 N   0  0  0  0  0  0  0  0  0  0  0  0
    2.0770   -3.1200   -0.5890 C   0  0  2  0  0  0  0  0  0  0  0  0
    1.0310   -2.2440    0.0990 C   0  0  0  0  0  0  0  0  0  0  0  0
    0.2790   -2.7310    0.9460 O   0  0  0  0  0  0  0  0  0  0  0  0
    1.5020   -4.5170   -0.8630 C   0  0  0  0  0  0  0  0  0  0  0  0
    0.2870   -4.5510   -1.8020 C   0  0  0  0  0  0  0  0  0  0  0  0
    0.6940   -4.2000   -3.2300 C   0  0  0  0  0  0  0  0  0  0  0  0
   -0.3580   -5.9410   -1.7890 C   0  0  0  0  0  0  0  0  0  0  0  0
    0.9410   -0.9510   -0.2690 N   0  0  0  0  0  0  0  0  0  0  0  0
   -0.0430   -0.0420    0.3080 C   0  0  2  0  0  0  0  0  0  0  0  0
   -1.4590   -0.3700   -0.1600 C   0  0  0  0  0  0  0  0  0  0  0  0
   -1.6500   -0.8510   -1.2800 O   0  0  0  0  0  0  0  0  0  0  0  0
    0.4020    1.3320   -0.1950 C   0  0  0  0  0  0  0  0  0  0  0  0
    1.1720    1.0380   -1.4580 C   0  0  0  0  0  0  0  0  0  0  0  0
    1.8230   -0.2990   -1.2360 C   0  0  0  0  0  0  0  0  0  0  0  0
   -2.4300   -0.1040    0.7220 N   0  0  0  0  0  0  0  0  0  0  0  0
   -3.8270   -0.3990    0.3950 C   0  0  2  0  0  0  0  0  0  0  0  0
   -4.3500    0.5150   -0.7050 C   0  0  0  0  0  0  0  0  0  0  0  0
   -5.2280    0.1270   -1.4710 O   0  0  0  0  0  0  0  0  0  0  0  0
   -4.6910   -0.2770    1.6410 C   0  0  0  0  0  0  0  0  0  0  0  0
   -4.3320   -1.2670    2.7170 C   0  0  0  0  0  0  0  0  0  0  0  0
   -4.7730   -2.6840    2.3590 C   0  0  0  0  0  0  0  0  0  0  0  0
   -6.2800   -2.8780    2.5020 C   0  0  0  0  0  0  0  0  0  0  0  0
   -6.6810   -4.2750    2.2420 N   0  3  0  0  0  0  0  0  0  0  0  0
   -3.8270    1.7470   -0.7690 N   0  0  0  0  0  0  0  0  0  0  0  0
   -4.2700    2.7280   -1.7630 C   0  0  2  0  0  0  0  0  0  0  0  0
   -3.1000    3.5450   -2.2800 C   0  0  0  0  0  0  0  0  0  0  0  0
   -2.3250    4.0840   -1.4960 O   0  0  0  0  0  0  0  0  0  0  0  0
   -5.3290    3.6350   -1.1500 C   0  0  0  0  0  0  0  0  0  0  0  0
   -6.0110    4.5500   -2.1440 C   0  0  0  0  0  0  0  0  0  0  0  0
   -6.7480    3.7670   -3.2290 C   0  0  0  0  0  0  0  0  0  0  0  0
   -8.0290    4.3760   -3.6000 N   0  0  0  0  0  0  0  0  0  0  0  0
   -8.7450    4.0230   -4.6630 C   0  0  0  0  0  0  0  0  0  0  0  0
   -8.3120    3.0750   -5.4880 N   0  3  0  0  0  0  0  0  0  0  0  0
   -9.8900    4.6100   -4.9190 N   0  0  0  0  0  0  0  0  0  0  0  0
   -3.0050    3.6450   -3.6180 N   0  0  0  0  0  0  0  0  0  0  0  0
   -1.9450    4.4230   -4.2590 C   0  0  2  0  0  0  0  0  0  0  0  0
   -2.5040    5.1830   -5.4500 C   0  0  0  0  0  0  0  0  0  0  0  0
   -2.9360    4.5870   -6.4350 O   0  0  0  0  0  0  0  0  0  0  0  0
   -0.8090    3.5210   -4.7470 C   0  0  2  0  0  0  0  0  0  0  0  0
   -0.4960    2.5490   -3.7530 O   0  0  0  0  0  0  0  0  0  0  0  0
    0.4300    4.3270   -5.0690 C   0  0  0  0  0  0  0  0  0  0  0  0
   -2.4890    6.5210   -5.3380 N   0  0  0  0  0  0  0  0  0  0  0  0
   -2.9940    7.3790   -6.4030 C   0  0  2  0  0  0  0  0  0  0  0  0
   -1.9660    8.4620   -6.7340 C   0  0  0  0  0  0  0  0  0  0  0  0
   -1.7240    9.3260   -5.8970 O   0  5  0  0  0  0  0  0  0  0  0  0
   -4.3290    8.0260   -5.9990 C   0  0  2  0  0  0  0  0  0  0  0  0
   -4.4940    7.9220   -4.5890 O   0  0  0  0  0  0  0  0  0  0  0  0
   -5.5040    7.3560   -6.6870 C   0  0  0  0  0  0  0  0  0  0  0  0
   -1.3590    8.4220   -7.8440 O   0  0  0  0  0  0  0  0  0  0  0  0
   12.1828   -8.3486    1.7510 H   0  0  0  0  0  0  0  0  0  0  0  0
   11.2288   -8.7201    0.4371 H   0  0  0  0  0  0  0  0  0  0  0  0
   10.6277   -8.8995    1.9801 H   0  0  0  0  0  0  0  0  0  0  0  0
   10.8325   -7.6114    1.9784 H   0  0  0  0  0  0  0  0  0  0  0  0
   10.7216   -6.5582    2.3460 H   0  0  0  0  0  0  0  0  0  0  0  0
   12.6714   -6.4125    0.6624 H   0  0  0  0  0  0  0  0  0  0  0  0
   11.3392   -6.1804   -0.5079 H   0  0  0  0  0  0  0  0  0  0  0  0
   11.6360   -4.4782    1.8847 H   0  0  0  0  0  0  0  0  0  0  0  0
   12.7954   -3.9779   -0.8448 H   0  0  0  0  0  0  0  0  0  0  0  0
   13.7146   -4.3116    0.6032 H   0  0  0  0  0  0  0  0  0  0  0  0
   12.7852   -2.8372    0.4787 H   0  0  0  0  0  0  0  0  0  0  0  0
   10.2692   -4.0251   -0.7411 H   0  0  0  0  0  0  0  0  0  0  0  0
   10.3120   -2.9051    0.5993 H   0  0  0  0  0  0  0  0  0  0  0  0
    9.4853   -4.4354    0.7656 H   0  0  0  0  0  0  0  0  0  0  0  0
    8.5449   -6.4921    2.6069 H   0  0  0  0  0  0  0  0  0  0  0  0
    6.8783   -6.7307    0.1906 H   0  0  0  0  0  0  0  0  0  0  0  0
    5.0736   -7.4535    1.7486 H   0  0  0  0  0  0  0  0  0  0  0  0
    6.3526   -7.5762    2.9887 H   0  0  0  0  0  0  0  0  0  0  0  0
    6.6556   -9.0616    0.4708 H   0  0  0  0  0  0  0  0  0  0  0  0
    7.4329   -9.6291    3.3126 H   0  0  0  0  0  0  0  0  0  0  0  0
    8.4827   -8.9774    2.0772 H   0  0  0  0  0  0  0  0  0  0  0  0
    7.8567  -10.6015    1.9241 H   0  0  0  0  0  0  0  0  0  0  0  0
    4.9866   -9.9900    2.7947 H   0  0  0  0  0  0  0  0  0  0  0  0
    5.4496  -10.9662    1.4215 H   0  0  0  0  0  0  0  0  0  0  0  0
    4.3835   -9.5993    1.2019 H   0  0  0  0  0  0  0  0  0  0  0  0
    6.4372   -4.6862   -0.3657 H   0  0  0  0  0  0  0  0  0  0  0  0
    5.2857   -2.9052    1.6933 H   0  0  0  0  0  0  0  0  0  0  0  0
    6.9460   -2.0019   -0.6290 H   0  0  0  0  0  0  0  0  0  0  0  0
    7.5658   -2.2375    1.0102 H   0  0  0  0  0  0  0  0  0  0  0  0
    5.4210    0.0628   -1.0123 H   0  0  0  0  0  0  0  0  0  0  0  0
    6.8403   -0.2957    2.8259 H   0  0  0  0  0  0  0  0  0  0  0  0
    4.9410    2.2170    0.1576 H   0  0  0  0  0  0  0  0  0  0  0  0
    3.2336   -3.5530    1.1388 H   0  0  0  0  0  0  0  0  0  0  0  0
    2.3351   -2.6668   -1.5233 H   0  0  0  0  0  0  0  0  0  0  0  0
    2.2753   -5.1134   -1.3004 H   0  0  0  0  0  0  0  0  0  0  0  0
    1.1589   -4.8873    0.0804 H   0  0  0  0  0  0  0  0  0  0  0  0
   -0.4180   -3.8261   -1.4521 H   0  0  0  0  0  0  0  0  0  0  0  0
    1.3994   -4.9209   -3.5872 H   0  0  0  0  0  0  0  0  0  0  0  0
    1.1394   -3.2272   -3.2450 H   0  0  0  0  0  0  0  0  0  0  0  0
   -0.1715   -4.2057   -3.8592 H   0  0  0  0  0  0  0  0  0  0  0  0
    0.3478   -6.6650   -2.1390 H   0  0  0  0  0  0  0  0  0  0  0  0
   -1.2164   -5.9419   -2.4278 H   0  0  0  0  0  0  0  0  0  0  0  0
   -0.6558   -6.1867   -0.7911 H   0  0  0  0  0  0  0  0  0  0  0  0
   -0.0826   -0.1045    1.3754 H   0  0  0  0  0  0  0  0  0  0  0  0
   -0.4452    1.9514   -0.4036 H   0  0  0  0  0  0  0  0  0  0  0  0
    0.9892    1.8600    0.5270 H   0  0  0  0  0  0  0  0  0  0  0  0
    0.5097    0.9957   -2.2973 H   0  0  0  0  0  0  0  0  0  0  0  0
    1.8945    1.7993   -1.6662 H   0  0  0  0  0  0  0  0  0  0  0  0
    2.8090   -0.1829   -0.8369 H   0  0  0  0  0  0  0  0  0  0  0  0
    1.9398   -0.8610   -2.1390 H   0  0  0  0  0  0  0  0  0  0  0  0
   -2.2042    0.2918    1.5947 H   0  0  0  0  0  0  0  0  0  0  0  0
   -3.8752   -1.4038    0.0304 H   0  0  0  0  0  0  0  0  0  0  0  0
   -5.7121   -0.4343    1.3624 H   0  0  0  0  0  0  0  0  0  0  0  0
   -4.5277    0.7006    2.0441 H   0  0  0  0  0  0  0  0  0  0  0  0
   -4.8110   -0.9758    3.6284 H   0  0  0  0  0  0  0  0  0  0  0  0
   -3.2673   -1.2686    2.8234 H   0  0  0  0  0  0  0  0  0  0  0  0
   -4.4954   -2.8845    1.3453 H   0  0  0  0  0  0  0  0  0  0  0  0
   -4.2916   -3.3567    3.0377 H   0  0  0  0  0  0  0  0  0  0  0  0
   -6.5701   -2.6141    3.4976 H   0  0  0  0  0  0  0  0  0  0  0  0
   -6.7652   -2.2535    1.7813 H   0  0  0  0  0  0  0  0  0  0  0  0
   -6.2293   -4.8900    2.9189 H   0  0  0  0  0  0  0  0  0  0  0  0
   -6.3970   -4.5404    1.2990 H   0  0  0  0  0  0  0  0  0  0  0  0
   -7.6938   -4.3597    2.3285 H   0  0  0  0  0  0  0  0  0  0  0  0
   -6.0402   -3.6177    2.6867 H   0  0  0  0  0  0  0  0  0  0  0  0
   -3.1236    2.0007   -0.1286 H   0  0  0  0  0  0  0  0  0  0  0  0
   -4.6948    2.2063   -2.5950 H   0  0  0  0  0  0  0  0  0  0  0  0
   -6.0754    3.0190   -0.6936 H   0  0  0  0  0  0  0  0  0  0  0  0
   -4.8255    4.2648   -0.4466 H   0  0  0  0  0  0  0  0  0  0  0  0
   -6.7151    5.1638   -1.6221 H   0  0  0  0  0  0  0  0  0  0  0  0
   -5.2576    5.1436   -2.6183 H   0  0  0  0  0  0  0  0  0  0  0  0
   -6.1268    3.7213   -4.0990 H   0  0  0  0  0  0  0  0  0  0  0  0
   -6.9563    2.7932   -2.8376 H   0  0  0  0  0  0  0  0  0  0  0  0
   -8.3818    5.0928   -3.0247 H   0  0  0  0  0  0  0  0  0  0  0  0
   -8.8504    2.8214   -6.2723 H   0  0  0  0  0  0  0  0  0  0  0  0
   -7.4529    2.6264   -5.3148 H   0  0  0  0  0  0  0  0  0  0  0  0
   -7.4190    2.6661   -5.5561 H   0  0  0  0  0  0  0  0  0  0  0  0
  -10.4144    4.3430   -5.7082 H   0  0  0  0  0  0  0  0  0  0  0  0
  -10.2248    5.3175   -4.3219 H   0  0  0  0  0  0  0  0  0  0  0  0
   -3.6667    3.1821   -4.1811 H   0  0  0  0  0  0  0  0  0  0  0  0
   -1.5605    5.1048   -3.5295 H   0  0  0  0  0  0  0  0  0  0  0  0
   -1.1384    3.0320   -5.6399 H   0  0  0  0  0  0  0  0  0  0  0  0
   -0.1980    2.9965   -2.9457 H   0  0  0  0  0  0  0  0  0  0  0  0
    0.7725    4.8231   -4.1850 H   0  0  0  0  0  0  0  0  0  0  0  0
    0.1976    5.0542   -5.8187 H   0  0  0  0  0  0  0  0  0  0  0  0
    1.1963    3.6738   -5.4311 H   0  0  0  0  0  0  0  0  0  0  0  0
   -2.1291    6.9316   -4.5188 H   0  0  0  0  0  0  0  0  0  0  0  0
   -3.1618    6.7756   -7.2705 H   0  0  0  0  0  0  0  0  0  0  0  0
   -4.3049    9.0525   -6.3002 H   0  0  0  0  0  0  0  0  0  0  0  0
   -4.5137    6.9864   -4.3339 H   0  0  0  0  0  0  0  0  0  0  0  0
   -5.5463    6.3264   -6.3988 H   0  0  0  0  0  0  0  0  0  0  0  0
   -5.3826    7.4247   -7.7479 H   0  0  0  0  0  0  0  0  0  0  0  0
   -6.4115    7.8445   -6.3995 H   0  0  0  0  0  0  0  0  0  0  0  0
  1 77  1  0  0  0  0
  1 78  1  0  0  0  0
  1 79  1  0  0  0  0
  1 80  1  0  0  0  0
  2  1  1  0  0  0  0
  2 81  1  1  0  0  0
  3  2  1  0  0  0  0
  3  9  1  0  0  0  0
  4  3  2  0  0  0  0
  5  6  1  0  0  0  0
  5  2  1  0  0  0  0
  5 82  1  0  0  0  0
  5 83  1  0  0  0  0
  6 84  1  0  0  0  0
  7  6  1  0  0  0  0
  7 85  1  0  0  0  0
  7 86  1  0  0  0  0
  7 87  1  0  0  0  0
  8  6  1  0  0  0  0
  8 88  1  0  0  0  0
  8 89  1  0  0  0  0
  8 90  1  0  0  0  0
  9 91  1  0  0  0  0
 10 11  1  0  0  0  0
 10  9  1  0  0  0  0
 10 13  1  0  0  0  0
 10 92  1  6  0  0  0
 11 12  2  0  0  0  0
 13 93  1  0  0  0  0
 13 94  1  0  0  0  0
 14 16  1  0  0  0  0
 14 13  1  0  0  0  0
 14 15  1  0  0  0  0
 14 95  1  0  0  0  0
 15 96  1  0  0  0  0
 15 97  1  0  0  0  0
 15 98  1  0  0  0  0
 16 99  1  0  0  0  0
 16100  1  0  0  0  0
 16101  1  0  0  0  0
 17 18  1  0  0  0  0
 17 11  1  0  0  0  0
 17102  1  0  0  0  0
 18103  1  1  0  0  0
 19 27  1  0  0  0  0
 19 18  1  0  0  0  0
 20 19  2  0  0  0  0
 21 18  1  0  0  0  0
 21 22  1  0  0  0  0
 21104  1  0  0  0  0
 21105  1  0  0  0  0
 22 24  2  0  0  0  0
 23 25  1  0  0  0  0
 23 22  1  0  0  0  0
 23106  1  0  0  0  0
 24107  1  0  0  0  0
 25 26  2  0  0  0  0
 25108  1  0  0  0  0
 26 24  1  0  0  0  0
 27109  1  0  0  0  0
 28 29  1  0  0  0  0
 28 27  1  0  0  0  0
 28110  1  6  0  0  0
 29 30  2  0  0  0  0
 31 28  1  0  0  0  0
 31111  1  0  0  0  0
 31112  1  0  0  0  0
 32 34  1  0  0  0  0
 32 31  1  0  0  0  0
 32113  1  0  0  0  0
 33 32  1  0  0  0  0
 33114  1  0  0  0  0
 33115  1  0  0  0  0
 33116  1  0  0  0  0
 34117  1  0  0  0  0
 34118  1  0  0  0  0
 34119  1  0  0  0  0
 35 29  1  0  0  0  0
 35 36  1  0  0  0  0
 36120  1  1  0  0  0
 37 36  1  0  0  0  0
 37 42  1  0  0  0  0
 38 37  2  0  0  0  0
 39 36  1  0  0  0  0
 39121  1  0  0  0  0
 39122  1  0  0  0  0
 40 41  1  0  0  0  0
 40 39  1  0  0  0  0
 40123  1  0  0  0  0
 40124  1  0  0  0  0
 41 35  1  0  0  0  0
 41125  1  0  0  0  0
 41126  1  0  0  0  0
 42127  1  0  0  0  0
 43 42  1  0  0  0  0
 43 46  1  0  0  0  0
 43128  1  6  0  0  0
 44 43  1  0  0  0  0
 45 44  2  0  0  0  0
 46 47  1  0  0  0  0
 46129  1  0  0  0  0
 46130  1  0  0  0  0
 47131  1  0  0  0  0
 47132  1  0  0  0  0
 48 49  1  0  0  0  0
 48 47  1  0  0  0  0
 48133  1  0  0  0  0
 48134  1  0  0  0  0
 49135  1  0  0  0  0
 49136  1  0  0  0  0
 50 49  1  0  0  0  0
 50137  1  0  0  0  0
 50138  1  0  0  0  0
 50139  1  0  0  0  0
 50140  1  0  0  0  0
 51 44  1  0  0  0  0
 51141  1  0  0  0  0
 52 55  1  0  0  0  0
 52 51  1  0  0  0  0
 52142  1  6  0  0  0
 53 52  1  0  0  0  0
 53 54  2  0  0  0  0
 55143  1  0  0  0  0
 55144  1  0  0  0  0
 56 55  1  0  0  0  0
 56145  1  0  0  0  0
 56146  1  0  0  0  0
 57 56  1  0  0  0  0
 57147  1  0  0  0  0
 57148  1  0  0  0  0
 58 57  1  0  0  0  0
 58149  1  0  0  0  0
 59 58  1  0  0  0  0
 60 59  2  0  0  0  0
 60150  1  0  0  0  0
 60151  1  0  0  0  0
 60152  1  0  0  0  0
 61 59  1  0  0  0  0
 61153  1  0  0  0  0
 61154  1  0  0  0  0
 62 53  1  0  0  0  0
 62155  1  0  0  0  0
 63 62  1  0  0  0  0
 63156  1  1  0  0  0
 64 69  1  0  0  0  0
 64 63  1  0  0  0  0
 65 64  2  0  0  0  0
 66 63  1  0  0  0  0
 66 67  1  0  0  0  0
 66157  1  6  0  0  0
 67158  1  0  0  0  0
 68 66  1  0  0  0  0
 68159  1  0  0  0  0
 68160  1  0  0  0  0
 68161  1  0  0  0  0
 69162  1  0  0  0  0
 70 73  1  0  0  0  0
 70 69  1  0  0  0  0
 70163  1  6  0  0  0
 71 70  1  0  0  0  0
 71 72  1  0  0  0  0
 73 74  1  0  0  0  0
 73164  1  6  0  0  0
 74165  1  0  0  0  0
 75 73  1  0  0  0  0
 75166  1  0  0  0  0
 75167  1  0  0  0  0
 75168  1  0  0  0  0
 76 71  2  0  0  0  0
M  CHG  4   1   1  50   1  60   1  72  -1
M  END
>  <REMARK>
   1 CREATED WITH OPENMM 8.5.2, 2026-07-29

$$$$
