/mnt/hpc/home/25menglei/25wenshaohua/MD/yzy/docking/dc/peptides/pdb/llhplrl.pdb
 OpenBabel07292620093D

139138  0  0  1  0  0  0  0  0999 V2000
   -0.8970    2.7590    0.7130 N   0  3  0  0  0  0  0  0  0  0  0  0
    0.4810    3.0470    0.3460 C   0  0  0  0  0  0  0  0  0  0  0  0
    1.4540    2.4210    1.3370 C   0  0  0  0  0  0  0  0  0  0  0  0
    2.5890    2.1070    0.9800 O   0  0  0  0  0  0  0  0  0  0  0  0
    0.7160    4.5440    0.2770 C   0  0  0  0  0  0  0  0  0  0  0  0
   -0.0640    5.2650   -0.8060 C   0  0  0  0  0  0  0  0  0  0  0  0
    0.1240    6.7740   -0.6790 C   0  0  0  0  0  0  0  0  0  0  0  0
    0.3610    4.7880   -2.1880 C   0  0  0  0  0  0  0  0  0  0  0  0
    1.0420    2.2740    2.5650 N   0  0  0  0  0  0  0  0  0  0  0  0
    1.8700    1.6400    3.5810 C   0  0  2  0  0  0  0  0  0  0  0  0
    1.8350    0.1250    3.4860 C   0  0  0  0  0  0  0  0  0  0  0  0
    2.7420   -0.5530    3.9660 O   0  0  0  0  0  0  0  0  0  0  0  0
    1.4520    2.0840    4.9770 C   0  0  0  0  0  0  0  0  0  0  0  0
    1.6480    3.5630    5.2990 C   0  0  0  0  0  0  0  0  0  0  0  0
    1.0230    3.8780    6.6560 C   0  0  0  0  0  0  0  0  0  0  0  0
    3.1240    3.9210    5.2960 C   0  0  0  0  0  0  0  0  0  0  0  0
    0.7970   -0.3750    2.8720 N   0  0  0  0  0  0  0  0  0  0  0  0
    0.6250   -1.8060    2.6890 C   0  0  2  0  0  0  0  0  0  0  0  0
    0.1340   -2.0120    1.2580 C   0  0  0  0  0  0  0  0  0  0  0  0
   -1.0060   -1.6650    0.9510 O   0  0  0  0  0  0  0  0  0  0  0  0
   -0.4110   -2.3340    3.6760 C   0  0  0  0  0  0  0  0  0  0  0  0
   -0.0430   -2.1030    5.1030 C   0  0  0  0  0  0  0  0  0  0  0  0
    0.8800   -2.8800    5.7900 N   0  0  0  0  0  0  0  0  0  0  0  0
   -0.4620   -1.1620    5.9960 C   0  0  0  0  0  0  0  0  0  0  0  0
    1.0050   -2.4310    7.0230 C   0  0  0  0  0  0  0  0  0  0  0  0
    0.1980   -1.3880    7.1680 N   0  0  0  0  0  0  0  0  0  0  0  0
    0.9880   -2.5380    0.4100 N   0  0  0  0  0  0  0  0  0  0  0  0
    0.6680   -2.6400   -1.0120 C   0  0  2  0  0  0  0  0  0  0  0  0
   -0.7170   -3.1440   -1.3790 C   0  0  0  0  0  0  0  0  0  0  0  0
   -1.3110   -2.6570   -2.3430 O   0  0  0  0  0  0  0  0  0  0  0  0
    1.7670   -3.5710   -1.5340 C   0  0  0  0  0  0  0  0  0  0  0  0
    2.9270   -3.2690   -0.6480 C   0  0  0  0  0  0  0  0  0  0  0  0
    2.3140   -3.0850    0.7200 C   0  0  0  0  0  0  0  0  0  0  0  0
   -1.2510   -4.0870   -0.6430 N   0  0  0  0  0  0  0  0  0  0  0  0
   -2.5610   -4.6450   -0.9420 C   0  0  2  0  0  0  0  0  0  0  0  0
   -3.7000   -3.7900   -0.4090 C   0  0  0  0  0  0  0  0  0  0  0  0
   -4.8470   -3.9890   -0.7910 O   0  0  0  0  0  0  0  0  0  0  0  0
   -2.6670   -6.0570   -0.3780 C   0  0  0  0  0  0  0  0  0  0  0  0
   -1.7370   -7.0990   -0.9940 C   0  0  0  0  0  0  0  0  0  0  0  0
   -1.8580   -8.4070   -0.2280 C   0  0  0  0  0  0  0  0  0  0  0  0
   -2.0790   -7.3010   -2.4640 C   0  0  0  0  0  0  0  0  0  0  0  0
   -3.4040   -2.8380    0.4330 N   0  0  0  0  0  0  0  0  0  0  0  0
   -4.4340   -2.0200    1.0660 C   0  0  2  0  0  0  0  0  0  0  0  0
   -4.2210   -0.5290    0.8820 C   0  0  0  0  0  0  0  0  0  0  0  0
   -5.1200    0.1740    0.4280 O   0  0  0  0  0  0  0  0  0  0  0  0
   -4.5210   -2.3560    2.5500 C   0  0  0  0  0  0  0  0  0  0  0  0
   -4.9230   -3.7930    2.8070 C   0  0  0  0  0  0  0  0  0  0  0  0
   -4.9100   -4.1270    4.2930 C   0  0  0  0  0  0  0  0  0  0  0  0
   -5.3100   -5.5250    4.5170 N   0  0  0  0  0  0  0  0  0  0  0  0
   -4.5070   -6.5530    4.3300 C   0  0  0  0  0  0  0  0  0  0  0  0
   -3.2420   -6.3760    3.9640 N   0  3  0  0  0  0  0  0  0  0  0  0
   -4.9650   -7.7720    4.5330 N   0  0  0  0  0  0  0  0  0  0  0  0
   -3.0860   -0.1380    1.2340 N   0  0  0  0  0  0  0  0  0  0  0  0
   -2.7750    1.2690    1.1780 C   0  0  0  0  0  0  0  0  0  0  0  0
   -1.3330    1.4670    0.7250 C   0  0  0  0  0  0  0  0  0  0  0  0
   -0.6180    0.4910    0.4570 O   0  0  0  0  0  0  0  0  0  0  0  0
   -2.9600    1.9020    2.5710 C   0  0  0  0  0  0  0  0  0  0  0  0
   -4.3510    1.9130    3.1450 C   0  0  0  0  0  0  0  0  0  0  0  0
   -4.3080    2.3640    4.5960 C   0  0  0  0  0  0  0  0  0  0  0  0
   -5.2420    2.8490    2.3360 C   0  0  0  0  0  0  0  0  0  0  0  0
   -0.9770    2.5230    0.5850 O   0  5  0  0  0  0  0  0  0  0  0  0
    0.1230    2.7590    0.7130 H   0  0  0  0  0  0  0  0  0  0  0  0
   -1.2370    3.6946    0.4908 H   0  0  0  0  0  0  0  0  0  0  0  0
   -1.2370    2.4836    1.6344 H   0  0  0  0  0  0  0  0  0  0  0  0
   -1.2370    2.0988    0.0138 H   0  0  0  0  0  0  0  0  0  0  0  0
    0.6337    2.6178   -0.6222 H   0  0  0  0  0  0  0  0  0  0  0  0
   -0.5223    2.8597    0.6672 H   0  0  0  0  0  0  0  0  0  0  0  0
    0.4423    4.9670    1.2210 H   0  0  0  0  0  0  0  0  0  0  0  0
    1.7508    4.6740    0.0378 H   0  0  0  0  0  0  0  0  0  0  0  0
   -1.1021    5.0381   -0.6808 H   0  0  0  0  0  0  0  0  0  0  0  0
    1.1589    7.0161   -0.8022 H   0  0  0  0  0  0  0  0  0  0  0  0
   -0.2046    7.0943    0.2876 H   0  0  0  0  0  0  0  0  0  0  0  0
   -0.4505    7.2697   -1.4334 H   0  0  0  0  0  0  0  0  0  0  0  0
    1.3982    5.0046   -2.3367 H   0  0  0  0  0  0  0  0  0  0  0  0
   -0.2189    5.2915   -2.9331 H   0  0  0  0  0  0  0  0  0  0  0  0
    0.2023    3.7327   -2.2655 H   0  0  0  0  0  0  0  0  0  0  0  0
    0.1467    2.6005    2.8121 H   0  0  0  0  0  0  0  0  0  0  0  0
    2.8765    1.9547    3.3997 H   0  0  0  0  0  0  0  0  0  0  0  0
    2.0211    1.5174    5.6841 H   0  0  0  0  0  0  0  0  0  0  0  0
    0.3963    1.9168    5.0273 H   0  0  0  0  0  0  0  0  0  0  0  0
    1.1645    4.1500    4.5463 H   0  0  0  0  0  0  0  0  0  0  0  0
    1.5023    3.2939    7.4136 H   0  0  0  0  0  0  0  0  0  0  0  0
   -0.0206    3.6429    6.6312 H   0  0  0  0  0  0  0  0  0  0  0  0
    1.1493    4.9179    6.8741 H   0  0  0  0  0  0  0  0  0  0  0  0
    3.6319    3.3462    6.0420 H   0  0  0  0  0  0  0  0  0  0  0  0
    3.2387    4.9632    5.5094 H   0  0  0  0  0  0  0  0  0  0  0  0
    3.5413    3.7058    4.3345 H   0  0  0  0  0  0  0  0  0  0  0  0
    0.1094    0.2366    2.5221 H   0  0  0  0  0  0  0  0  0  0  0  0
    1.5423   -2.3298    2.8596 H   0  0  0  0  0  0  0  0  0  0  0  0
   -0.5215   -3.3869    3.5206 H   0  0  0  0  0  0  0  0  0  0  0  0
   -1.3204   -1.8002    3.4944 H   0  0  0  0  0  0  0  0  0  0  0  0
    1.3667   -3.6487    5.4138 H   0  0  0  0  0  0  0  0  0  0  0  0
   -1.1520   -0.4156    5.8179 H   0  0  0  0  0  0  0  0  0  0  0  0
    1.6237   -2.8231    7.7500 H   0  0  0  0  0  0  0  0  0  0  0  0
    0.6405   -1.6644   -1.4505 H   0  0  0  0  0  0  0  0  0  0  0  0
    1.9991   -3.3538   -2.5557 H   0  0  0  0  0  0  0  0  0  0  0  0
    1.4841   -4.6027   -1.5139 H   0  0  0  0  0  0  0  0  0  0  0  0
    3.4230   -2.3752   -0.9644 H   0  0  0  0  0  0  0  0  0  0  0  0
    3.6659   -4.0427   -0.6641 H   0  0  0  0  0  0  0  0  0  0  0  0
    2.8858   -2.3992    1.3097 H   0  0  0  0  0  0  0  0  0  0  0  0
    2.2769   -3.9879    1.2930 H   0  0  0  0  0  0  0  0  0  0  0  0
   -0.7519   -4.4277    0.1342 H   0  0  0  0  0  0  0  0  0  0  0  0
   -2.6552   -4.6673   -2.0076 H   0  0  0  0  0  0  0  0  0  0  0  0
   -2.4538   -6.0073    0.6694 H   0  0  0  0  0  0  0  0  0  0  0  0
   -3.6588   -6.3848   -0.6099 H   0  0  0  0  0  0  0  0  0  0  0  0
   -0.7257   -6.7555   -0.9297 H   0  0  0  0  0  0  0  0  0  0  0  0
   -2.8660   -8.7616   -0.2846 H   0  0  0  0  0  0  0  0  0  0  0  0
   -1.5935   -8.2463    0.7963 H   0  0  0  0  0  0  0  0  0  0  0  0
   -1.1997   -9.1335   -0.6566 H   0  0  0  0  0  0  0  0  0  0  0  0
   -3.0884   -7.6452   -2.5513 H   0  0  0  0  0  0  0  0  0  0  0  0
   -1.4168   -8.0268   -2.8878 H   0  0  0  0  0  0  0  0  0  0  0  0
   -1.9722   -6.3730   -2.9858 H   0  0  0  0  0  0  0  0  0  0  0  0
   -2.4586   -2.6665    0.6475 H   0  0  0  0  0  0  0  0  0  0  0  0
   -5.3559   -2.2558    0.5766 H   0  0  0  0  0  0  0  0  0  0  0  0
   -5.2456   -1.7126    3.0037 H   0  0  0  0  0  0  0  0  0  0  0  0
   -3.5462   -2.2159    2.9683 H   0  0  0  0  0  0  0  0  0  0  0  0
   -4.2377   -4.4402    2.3006 H   0  0  0  0  0  0  0  0  0  0  0  0
   -5.9204   -3.9292    2.4443 H   0  0  0  0  0  0  0  0  0  0  0  0
   -5.5925   -3.4805    4.8040 H   0  0  0  0  0  0  0  0  0  0  0  0
   -3.9169   -3.9899    4.6670 H   0  0  0  0  0  0  0  0  0  0  0  0
   -6.2286   -5.7023    4.8236 H   0  0  0  0  0  0  0  0  0  0  0  0
   -2.8963   -5.4669    3.8114 H   0  0  0  0  0  0  0  0  0  0  0  0
   -2.6504   -7.1539    3.8454 H   0  0  0  0  0  0  0  0  0  0  0  0
   -2.9092   -7.0684    4.5797 H   0  0  0  0  0  0  0  0  0  0  0  0
   -4.3753   -8.5485    4.3968 H   0  0  0  0  0  0  0  0  0  0  0  0
   -5.8969   -7.9061    4.8208 H   0  0  0  0  0  0  0  0  0  0  0  0
   -2.4120   -0.7842    1.5460 H   0  0  0  0  0  0  0  0  0  0  0  0
   -3.4285    1.7495    0.4802 H   0  0  0  0  0  0  0  0  0  0  0  0
   -1.7590    1.3935    0.8662 H   0  0  0  0  0  0  0  0  0  0  0  0
   -2.2852    1.3044    1.0881 H   0  0  0  0  0  0  0  0  0  0  0  0
   -2.6300    2.9179    2.5088 H   0  0  0  0  0  0  0  0  0  0  0  0
   -2.3947    1.2796    3.2328 H   0  0  0  0  0  0  0  0  0  0  0  0
   -4.7545    0.9231    3.0984 H   0  0  0  0  0  0  0  0  0  0  0  0
   -3.9052    3.3538    4.6501 H   0  0  0  0  0  0  0  0  0  0  0  0
   -3.6899    1.6962    5.1589 H   0  0  0  0  0  0  0  0  0  0  0  0
   -5.2986    2.3595    5.0004 H   0  0  0  0  0  0  0  0  0  0  0  0
   -4.8460    3.8422    2.3768 H   0  0  0  0  0  0  0  0  0  0  0  0
   -6.2307    2.8422    2.7449 H   0  0  0  0  0  0  0  0  0  0  0  0
   -5.2746    2.5195    1.3185 H   0  0  0  0  0  0  0  0  0  0  0  0
  1 62  1  0  0  0  0
  1 63  1  0  0  0  0
  1 64  1  0  0  0  0
  1 65  1  0  0  0  0
  2  3  1  0  0  0  0
  2 66  1  0  0  0  0
  2 67  1  0  0  0  0
  3  9  1  0  0  0  0
  4  3  2  0  0  0  0
  5  2  1  0  0  0  0
  5 68  1  0  0  0  0
  5 69  1  0  0  0  0
  6  7  1  0  0  0  0
  6  5  1  0  0  0  0
  6 70  1  0  0  0  0
  7 71  1  0  0  0  0
  7 72  1  0  0  0  0
  7 73  1  0  0  0  0
  8  6  1  0  0  0  0
  8 74  1  0  0  0  0
  8 75  1  0  0  0  0
  8 76  1  0  0  0  0
  9 10  1  0  0  0  0
  9 77  1  0  0  0  0
 10 13  1  0  0  0  0
 10 78  1  6  0  0  0
 11 10  1  0  0  0  0
 11 12  2  0  0  0  0
 13 14  1  0  0  0  0
 13 79  1  0  0  0  0
 13 80  1  0  0  0  0
 14 15  1  0  0  0  0
 14 81  1  0  0  0  0
 15 82  1  0  0  0  0
 15 83  1  0  0  0  0
 15 84  1  0  0  0  0
 16 14  1  0  0  0  0
 16 85  1  0  0  0  0
 16 86  1  0  0  0  0
 16 87  1  0  0  0  0
 17 11  1  0  0  0  0
 17 88  1  0  0  0  0
 18 17  1  0  0  0  0
 18 21  1  0  0  0  0
 18 89  1  1  0  0  0
 19 18  1  0  0  0  0
 20 19  2  0  0  0  0
 21 22  1  0  0  0  0
 21 90  1  0  0  0  0
 21 91  1  0  0  0  0
 22 23  1  0  0  0  0
 22 24  2  0  0  0  0
 23 25  1  0  0  0  0
 23 92  1  0  0  0  0
 24 26  1  0  0  0  0
 24 93  1  0  0  0  0
 25 26  2  0  0  0  0
 25 94  1  0  0  0  0
 27 33  1  0  0  0  0
 27 19  1  0  0  0  0
 28 27  1  0  0  0  0
 28 95  1  6  0  0  0
 29 28  1  0  0  0  0
 29 34  1  0  0  0  0
 30 29  2  0  0  0  0
 31 28  1  0  0  0  0
 31 32  1  0  0  0  0
 31 96  1  0  0  0  0
 31 97  1  0  0  0  0
 32 33  1  0  0  0  0
 32 98  1  0  0  0  0
 32 99  1  0  0  0  0
 33100  1  0  0  0  0
 33101  1  0  0  0  0
 34102  1  0  0  0  0
 35 34  1  0  0  0  0
 35 36  1  0  0  0  0
 35 38  1  0  0  0  0
 35103  1  6  0  0  0
 36 42  1  0  0  0  0
 37 36  2  0  0  0  0
 38104  1  0  0  0  0
 38105  1  0  0  0  0
 39 38  1  0  0  0  0
 39 40  1  0  0  0  0
 39106  1  0  0  0  0
 40107  1  0  0  0  0
 40108  1  0  0  0  0
 40109  1  0  0  0  0
 41 39  1  0  0  0  0
 41110  1  0  0  0  0
 41111  1  0  0  0  0
 41112  1  0  0  0  0
 42 43  1  0  0  0  0
 42113  1  0  0  0  0
 43 46  1  0  0  0  0
 43114  1  6  0  0  0
 44 43  1  0  0  0  0
 44 53  1  0  0  0  0
 45 44  2  0  0  0  0
 46 47  1  0  0  0  0
 46115  1  0  0  0  0
 46116  1  0  0  0  0
 47 48  1  0  0  0  0
 47117  1  0  0  0  0
 47118  1  0  0  0  0
 48 49  1  0  0  0  0
 48119  1  0  0  0  0
 48120  1  0  0  0  0
 49121  1  0  0  0  0
 50 49  1  0  0  0  0
 50 52  1  0  0  0  0
 51 50  2  0  0  0  0
 51122  1  0  0  0  0
 51123  1  0  0  0  0
 51124  1  0  0  0  0
 52125  1  0  0  0  0
 52126  1  0  0  0  0
 53127  1  0  0  0  0
 54 53  1  0  0  0  0
 54 57  1  0  0  0  0
 54128  1  0  0  0  0
 54129  1  0  0  0  0
 55130  1  0  0  0  0
 56 55  2  0  0  0  0
 57 58  1  0  0  0  0
 57131  1  0  0  0  0
 57132  1  0  0  0  0
 58 59  1  0  0  0  0
 58133  1  0  0  0  0
 59134  1  0  0  0  0
 59135  1  0  0  0  0
 59136  1  0  0  0  0
 60 58  1  0  0  0  0
 60137  1  0  0  0  0
 60138  1  0  0  0  0
 60139  1  0  0  0  0
 61 55  1  0  0  0  0
M  CHG  3   1   1  51   1  61  -1
M  END
>  <REMARK>
   1 CREATED WITH OPENMM 8.5.2, 2026-07-29

$$$$
