/mnt/hpc/home/25menglei/25wenshaohua/MD/yzy/docking/dc/peptides/pdb/llhplrc.pdb
 OpenBabel07292620093D

128129  0  0  1  0  0  0  0  0999 V2000
    2.0370    3.4760    9.2780 N   0  3  0  0  0  0  0  0  0  0  0  0
    1.5630    2.3170    8.4970 C   0  0  2  0  0  0  0  0  0  0  0  0
    1.2090    2.7380    7.0700 C   0  0  0  0  0  0  0  0  0  0  0  0
    0.0330    2.8370    6.7130 O   0  0  0  0  0  0  0  0  0  0  0  0
    0.3440    1.7080    9.1840 C   0  0  0  0  0  0  0  0  0  0  0  0
    0.6470    1.0340   10.5250 C   0  0  0  0  0  0  0  0  0  0  0  0
   -0.6510    0.7320   11.2580 C   0  0  0  0  0  0  0  0  0  0  0  0
    1.4440   -0.2530   10.2920 C   0  0  0  0  0  0  0  0  0  0  0  0
    2.2260    3.0030    6.2540 N   0  0  0  0  0  0  0  0  0  0  0  0
    2.0280    3.4160    4.8680 C   0  0  2  0  0  0  0  0  0  0  0  0
    2.5640    2.3390    3.9170 C   0  0  0  0  0  0  0  0  0  0  0  0
    3.7500    2.3360    3.5760 O   0  0  0  0  0  0  0  0  0  0  0  0
    2.7170    4.7560    4.6250 C   0  0  0  0  0  0  0  0  0  0  0  0
    2.1060    5.9480    5.3920 C   0  0  0  0  0  0  0  0  0  0  0  0
    3.0760    7.1190    5.4070 C   0  0  0  0  0  0  0  0  0  0  0  0
    0.7810    6.3560    4.7630 C   0  0  0  0  0  0  0  0  0  0  0  0
    1.6970    1.4380    3.5200 N   0  0  0  0  0  0  0  0  0  0  0  0
    2.0850    0.3590    2.6070 C   0  0  2  0  0  0  0  0  0  0  0  0
    1.7100    0.6980    1.1650 C   0  0  0  0  0  0  0  0  0  0  0  0
    0.5970    1.1590    0.9050 O   0  0  0  0  0  0  0  0  0  0  0  0
    1.4080   -0.9500    3.0340 C   0  0  0  0  0  0  0  0  0  0  0  0
    2.0370   -1.5590    4.2560 C   0  0  0  0  0  0  0  0  0  0  0  0
    1.6030   -1.2830    5.5440 N   0  0  0  0  0  0  0  0  0  0  0  0
    3.0540   -2.4510    4.3940 C   0  0  0  0  0  0  0  0  0  0  0  0
    2.3560   -1.9770    6.4000 C   0  0  0  0  0  0  0  0  0  0  0  0
    3.2270   -2.6930    5.7360 N   0  0  0  0  0  0  0  0  0  0  0  0
    2.6460    0.4860    0.2440 N   0  0  0  0  0  0  0  0  0  0  0  0
    2.3730    0.7580   -1.1660 C   0  0  2  0  0  0  0  0  0  0  0  0
    1.4120   -0.2730   -1.7610 C   0  0  0  0  0  0  0  0  0  0  0  0
    1.4790   -1.4610   -1.4360 O   0  0  0  0  0  0  0  0  0  0  0  0
    3.7550    0.6540   -1.8060 C   0  0  0  0  0  0  0  0  0  0  0  0
    4.5090   -0.2800   -0.9100 C   0  0  0  0  0  0  0  0  0  0  0  0
    3.9890   -0.0230    0.4720 C   0  0  0  0  0  0  0  0  0  0  0  0
    0.5150    0.1860   -2.6140 N   0  0  0  0  0  0  0  0  0  0  0  0
   -0.4510   -0.6960   -3.2600 C   0  0  2  0  0  0  0  0  0  0  0  0
    0.2480   -1.7580   -4.1010 C   0  0  0  0  0  0  0  0  0  0  0  0
    1.2010   -1.4640   -4.8120 O   0  0  0  0  0  0  0  0  0  0  0  0
   -1.3960    0.1330   -4.1170 C   0  0  0  0  0  0  0  0  0  0  0  0
   -2.2940    1.0670   -3.3000 C   0  0  0  0  0  0  0  0  0  0  0  0
   -2.9330    2.0950   -4.2090 C   0  0  0  0  0  0  0  0  0  0  0  0
   -3.3650    0.2580   -2.5760 C   0  0  0  0  0  0  0  0  0  0  0  0
   -0.2290   -2.9740   -4.0170 N   0  0  0  0  0  0  0  0  0  0  0  0
    0.3460   -4.0890   -4.7820 C   0  0  2  0  0  0  0  0  0  0  0  0
   -0.3880   -4.2750   -6.1070 C   0  0  0  0  0  0  0  0  0  0  0  0
   -1.6030   -4.4420   -6.1290 O   0  0  0  0  0  0  0  0  0  0  0  0
    0.2640   -5.3780   -3.9610 C   0  0  0  0  0  0  0  0  0  0  0  0
    1.3800   -5.4720   -2.9400 C   0  0  0  0  0  0  0  0  0  0  0  0
    1.3240   -6.7990   -2.1960 C   0  0  0  0  0  0  0  0  0  0  0  0
    2.5100   -7.0240   -1.3780 N   0  0  0  0  0  0  0  0  0  0  0  0
    2.6960   -8.0850   -0.6030 C   0  0  0  0  0  0  0  0  0  0  0  0
    1.7670   -9.0260   -0.5250 N   0  3  0  0  0  0  0  0  0  0  0  0
    3.8060   -8.2110    0.1000 N   0  0  0  0  0  0  0  0  0  0  0  0
    0.3880   -4.2460   -7.1750 N   0  0  0  0  0  0  0  0  0  0  0  0
   -0.1780   -4.4300   -8.5080 C   0  0  2  0  0  0  0  0  0  0  0  0
   -0.3850   -5.9250   -8.8040 C   0  0  0  0  0  0  0  0  0  0  0  0
   -1.2780   -6.5320   -8.2120 O   0  5  0  0  0  0  0  0  0  0  0  0
    0.7240   -3.7820   -9.5630 C   0  0  0  0  0  0  0  0  0  0  0  0
    0.9480   -2.0030   -9.3370 S   0  0  0  0  0  0  0  0  0  0  0  0
    0.3470   -6.5150   -9.6000 O   0  0  0  0  0  0  0  0  0  0  0  0
    2.8519    3.8842    8.8201 H   0  0  0  0  0  0  0  0  0  0  0  0
    2.2919    3.1716   10.2175 H   0  0  0  0  0  0  0  0  0  0  0  0
    1.2948    4.1732    9.3362 H   0  0  0  0  0  0  0  0  0  0  0  0
    1.6039    2.5526    9.2932 H   0  0  0  0  0  0  0  0  0  0  0  0
    2.3445    1.5879    8.4460 H   0  0  0  0  0  0  0  0  0  0  0  0
   -0.0786    0.9753    8.5287 H   0  0  0  0  0  0  0  0  0  0  0  0
   -0.3258    2.5161    9.3919 H   0  0  0  0  0  0  0  0  0  0  0  0
    1.2335    1.6952   11.1281 H   0  0  0  0  0  0  0  0  0  0  0  0
   -1.2492    0.0708   10.6664 H   0  0  0  0  0  0  0  0  0  0  0  0
   -1.1862    1.6432   11.4258 H   0  0  0  0  0  0  0  0  0  0  0  0
   -0.4308    0.2695   12.1974 H   0  0  0  0  0  0  0  0  0  0  0  0
    0.8688   -0.9245    9.6894 H   0  0  0  0  0  0  0  0  0  0  0  0
    1.6599   -0.7141   11.2331 H   0  0  0  0  0  0  0  0  0  0  0  0
    2.3600   -0.0195    9.7907 H   0  0  0  0  0  0  0  0  0  0  0  0
    3.1448    2.9175    6.5972 H   0  0  0  0  0  0  0  0  0  0  0  0
    0.9818    3.5358    4.6780 H   0  0  0  0  0  0  0  0  0  0  0  0
    2.6647    4.9720    3.5783 H   0  0  0  0  0  0  0  0  0  0  0  0
    3.7189    4.6486    4.9850 H   0  0  0  0  0  0  0  0  0  0  0  0
    1.9225    5.6495    6.4030 H   0  0  0  0  0  0  0  0  0  0  0  0
    3.2723    7.4324    4.4029 H   0  0  0  0  0  0  0  0  0  0  0  0
    3.9914    6.8179    5.8721 H   0  0  0  0  0  0  0  0  0  0  0  0
    2.6468    7.9306    5.9566 H   0  0  0  0  0  0  0  0  0  0  0  0
    0.9452    6.6582    3.7498 H   0  0  0  0  0  0  0  0  0  0  0  0
    0.3603    7.1707    5.3145 H   0  0  0  0  0  0  0  0  0  0  0  0
    0.1062    5.5258    4.7827 H   0  0  0  0  0  0  0  0  0  0  0  0
    0.7678    1.4876    3.8415 H   0  0  0  0  0  0  0  0  0  0  0  0
    3.1475    0.2419    2.6545 H   0  0  0  0  0  0  0  0  0  0  0  0
    1.4786   -1.6502    2.2280 H   0  0  0  0  0  0  0  0  0  0  0  0
    0.3903   -0.7231    3.2744 H   0  0  0  0  0  0  0  0  0  0  0  0
    0.8649   -0.6780    5.7858 H   0  0  0  0  0  0  0  0  0  0  0  0
    3.6000   -2.8722    3.6262 H   0  0  0  0  0  0  0  0  0  0  0  0
    2.2652   -1.9527    7.4277 H   0  0  0  0  0  0  0  0  0  0  0  0
    1.8999    1.7044   -1.3255 H   0  0  0  0  0  0  0  0  0  0  0  0
    4.2299    1.6123   -1.8402 H   0  0  0  0  0  0  0  0  0  0  0  0
    3.7121    0.3052   -2.8166 H   0  0  0  0  0  0  0  0  0  0  0  0
    5.5585   -0.0770   -0.9576 H   0  0  0  0  0  0  0  0  0  0  0  0
    4.3737   -1.3011   -1.1997 H   0  0  0  0  0  0  0  0  0  0  0  0
    4.5914    0.7023    0.9779 H   0  0  0  0  0  0  0  0  0  0  0  0
    4.0028   -0.8963    1.0901 H   0  0  0  0  0  0  0  0  0  0  0  0
    0.4975    1.1486   -2.8195 H   0  0  0  0  0  0  0  0  0  0  0  0
   -1.0124   -1.2049   -2.5045 H   0  0  0  0  0  0  0  0  0  0  0  0
   -0.8123    0.7259   -4.7898 H   0  0  0  0  0  0  0  0  0  0  0  0
   -2.0369   -0.5505   -4.6337 H   0  0  0  0  0  0  0  0  0  0  0  0
   -1.6990    1.5768   -2.5713 H   0  0  0  0  0  0  0  0  0  0  0  0
   -3.5318    1.5984   -4.9437 H   0  0  0  0  0  0  0  0  0  0  0  0
   -2.1691    2.6638   -4.6966 H   0  0  0  0  0  0  0  0  0  0  0  0
   -3.5498    2.7494   -3.6292 H   0  0  0  0  0  0  0  0  0  0  0  0
   -3.9683   -0.2578   -3.2935 H   0  0  0  0  0  0  0  0  0  0  0  0
   -3.9808    0.9165   -1.9998 H   0  0  0  0  0  0  0  0  0  0  0  0
   -2.8974   -0.4524   -1.9267 H   0  0  0  0  0  0  0  0  0  0  0  0
   -0.9955   -3.1466   -3.4238 H   0  0  0  0  0  0  0  0  0  0  0  0
    1.3705   -3.8618   -4.9910 H   0  0  0  0  0  0  0  0  0  0  0  0
    0.3310   -6.2150   -4.6242 H   0  0  0  0  0  0  0  0  0  0  0  0
   -0.6672   -5.3758   -3.4339 H   0  0  0  0  0  0  0  0  0  0  0  0
    1.2802   -4.6715   -2.2370 H   0  0  0  0  0  0  0  0  0  0  0  0
    2.3178   -5.4054   -3.4509 H   0  0  0  0  0  0  0  0  0  0  0  0
    1.2433   -7.5913   -2.9106 H   0  0  0  0  0  0  0  0  0  0  0  0
    0.4760   -6.7738   -1.5440 H   0  0  0  0  0  0  0  0  0  0  0  0
    3.2205   -6.3430   -1.4023 H   0  0  0  0  0  0  0  0  0  0  0  0
    0.9356   -8.9413   -1.0454 H   0  0  0  0  0  0  0  0  0  0  0  0
    1.9079   -9.8101    0.0534 H   0  0  0  0  0  0  0  0  0  0  0  0
    1.1263   -8.3875   -0.9138 H   0  0  0  0  0  0  0  0  0  0  0  0
    4.5025   -7.5171    0.0489 H   0  0  0  0  0  0  0  0  0  0  0  0
    3.9374   -8.9989    0.6755 H   0  0  0  0  0  0  0  0  0  0  0  0
    1.3560   -4.0991   -7.0715 H   0  0  0  0  0  0  0  0  0  0  0  0
   -1.1336   -3.9500   -8.5443 H   0  0  0  0  0  0  0  0  0  0  0  0
    1.6847   -4.2512   -9.5198 H   0  0  0  0  0  0  0  0  0  0  0  0
    0.2442   -3.9181  -10.5096 H   0  0  0  0  0  0  0  0  0  0  0  0
    1.5569   -1.7708   -8.1433 H   0  0  0  0  0  0  0  0  0  0  0  0
  1 60  1  0  0  0  0
  1 61  1  0  0  0  0
  1 62  1  0  0  0  0
  1 63  1  0  0  0  0
  2  5  1  0  0  0  0
  2  1  1  0  0  0  0
  2 64  1  6  0  0  0
  3  2  1  0  0  0  0
  4  3  2  0  0  0  0
  5  6  1  0  0  0  0
  5 65  1  0  0  0  0
  5 66  1  0  0  0  0
  6  7  1  0  0  0  0
  6 67  1  0  0  0  0
  7 68  1  0  0  0  0
  7 69  1  0  0  0  0
  7 70  1  0  0  0  0
  8  6  1  0  0  0  0
  8 71  1  0  0  0  0
  8 72  1  0  0  0  0
  8 73  1  0  0  0  0
  9  3  1  0  0  0  0
  9 74  1  0  0  0  0
 10  9  1  0  0  0  0
 10 75  1  6  0  0  0
 11 10  1  0  0  0  0
 12 11  2  0  0  0  0
 13 10  1  0  0  0  0
 13 14  1  0  0  0  0
 13 76  1  0  0  0  0
 13 77  1  0  0  0  0
 14 15  1  0  0  0  0
 14 78  1  0  0  0  0
 15 79  1  0  0  0  0
 15 80  1  0  0  0  0
 15 81  1  0  0  0  0
 16 14  1  0  0  0  0
 16 82  1  0  0  0  0
 16 83  1  0  0  0  0
 16 84  1  0  0  0  0
 17 11  1  0  0  0  0
 17 85  1  0  0  0  0
 18 21  1  0  0  0  0
 18 17  1  0  0  0  0
 18 86  1  1  0  0  0
 19 18  1  0  0  0  0
 20 19  2  0  0  0  0
 21 22  1  0  0  0  0
 21 87  1  0  0  0  0
 21 88  1  0  0  0  0
 22 24  2  0  0  0  0
 22 23  1  0  0  0  0
 23 25  1  0  0  0  0
 23 89  1  0  0  0  0
 24 26  1  0  0  0  0
 24 90  1  0  0  0  0
 25 91  1  0  0  0  0
 26 25  2  0  0  0  0
 27 33  1  0  0  0  0
 27 19  1  0  0  0  0
 28 27  1  0  0  0  0
 28 92  1  6  0  0  0
 29 30  2  0  0  0  0
 29 28  1  0  0  0  0
 31 28  1  0  0  0  0
 31 32  1  0  0  0  0
 31 93  1  0  0  0  0
 31 94  1  0  0  0  0
 32 33  1  0  0  0  0
 32 95  1  0  0  0  0
 32 96  1  0  0  0  0
 33 97  1  0  0  0  0
 33 98  1  0  0  0  0
 34 29  1  0  0  0  0
 34 99  1  0  0  0  0
 35 34  1  0  0  0  0
 35100  1  1  0  0  0
 36 42  1  0  0  0  0
 36 35  1  0  0  0  0
 37 36  2  0  0  0  0
 38 39  1  0  0  0  0
 38 35  1  0  0  0  0
 38101  1  0  0  0  0
 38102  1  0  0  0  0
 39 41  1  0  0  0  0
 39103  1  0  0  0  0
 40 39  1  0  0  0  0
 40104  1  0  0  0  0
 40105  1  0  0  0  0
 40106  1  0  0  0  0
 41107  1  0  0  0  0
 41108  1  0  0  0  0
 41109  1  0  0  0  0
 42110  1  0  0  0  0
 43 42  1  0  0  0  0
 43 46  1  0  0  0  0
 43111  1  6  0  0  0
 44 43  1  0  0  0  0
 45 44  2  0  0  0  0
 46 47  1  0  0  0  0
 46112  1  0  0  0  0
 46113  1  0  0  0  0
 47 48  1  0  0  0  0
 47114  1  0  0  0  0
 47115  1  0  0  0  0
 48 49  1  0  0  0  0
 48116  1  0  0  0  0
 48117  1  0  0  0  0
 49 50  1  0  0  0  0
 49118  1  0  0  0  0
 50 51  2  0  0  0  0
 50 52  1  0  0  0  0
 51119  1  0  0  0  0
 51120  1  0  0  0  0
 51121  1  0  0  0  0
 52122  1  0  0  0  0
 52123  1  0  0  0  0
 53 44  1  0  0  0  0
 53124  1  0  0  0  0
 54 53  1  0  0  0  0
 54125  1  6  0  0  0
 55 54  1  0  0  0  0
 55 56  1  0  0  0  0
 57 58  1  0  0  0  0
 57 54  1  0  0  0  0
 57126  1  0  0  0  0
 57127  1  0  0  0  0
 58128  1  0  0  0  0
 59 55  2  0  0  0  0
M  CHG  3   1   1  51   1  56  -1
M  END
>  <REMARK>
   1 CREATED WITH OPENMM 8.5.2, 2026-07-29

$$$$
