/mnt/hpc/home/25menglei/25wenshaohua/MD/yzy/docking/dc/peptides/pdb/wllvhlkk.pdb
 OpenBabel07292620093D

172175  0  0  1  0  0  0  0  0999 V2000
   -5.6630    2.4770   -1.5800 N   0  3  0  0  0  0  0  0  0  0  0  0
   -4.7830    1.8660   -2.5760 C   0  0  2  0  0  0  0  0  0  0  0  0
   -4.1970    0.5590   -2.0310 C   0  0  1  0  0  0  0  0  0  0  0  0
   -4.5890    0.0940   -0.9620 O   0  0  0  0  0  0  0  0  0  0  0  0
   -3.6670    2.8240   -2.9420 C   0  0  0  0  0  0  0  0  0  0  0  0
   -3.0780    2.5690   -4.2980 C   0  0  2  0  0  0  0  0  0  0  0  0
   -3.2270    1.4830   -5.0930 C   0  0  0  0  0  0  0  0  0  0  0  0
   -2.1980    3.4590   -5.0270 C   0  0  0  0  0  0  0  0  0  0  0  0
   -2.5070    1.6030   -6.2600 N   0  0  0  0  0  0  0  0  0  0  0  0
   -1.8630    2.8260   -6.2450 C   0  0  0  0  0  0  0  0  0  0  0  0
   -1.6730    4.7240   -4.7550 C   0  0  0  0  0  0  0  0  0  0  0  0
   -1.0230    3.4180   -7.1810 C   0  0  0  0  0  0  0  0  0  0  0  0
   -0.8420    5.3120   -5.6770 C   0  0  0  0  0  0  0  0  0  0  0  0
   -0.5180    4.6730   -6.8810 C   0  0  0  0  0  0  0  0  0  0  0  0
   -3.3240   -0.0420   -2.7830 N   0  3  0  0  0  0  0  0  0  0  0  0
   -2.7350   -1.3160   -2.3820 C   0  0  2  0  0  0  0  0  0  0  0  0
   -1.2060   -1.2730   -2.3940 C   0  0  0  0  0  0  0  0  0  0  0  0
   -0.5510   -1.8610   -1.5390 O   0  0  0  0  0  0  0  0  0  0  0  0
   -3.2480   -2.4160   -3.3220 C   0  0  0  0  0  0  0  0  0  0  0  0
   -3.2150   -2.0210   -4.8120 C   0  0  0  0  0  0  0  0  0  0  0  0
   -2.0560   -2.7020   -5.5200 C   0  0  0  0  0  0  0  0  0  0  0  0
   -4.5290   -2.3790   -5.4800 C   0  0  0  0  0  0  0  0  0  0  0  0
   -0.6340   -0.5810   -3.3710 N   0  0  0  0  0  0  0  0  0  0  0  0
    0.8220   -0.4870   -3.4470 C   0  0  2  0  0  0  0  0  0  0  0  0
    1.3680    0.4690   -2.3880 C   0  0  0  0  0  0  0  0  0  0  0  0
    2.3730    0.1780   -1.7400 O   0  0  0  0  0  0  0  0  0  0  0  0
    1.2380   -0.0160   -4.8430 C   0  0  0  0  0  0  0  0  0  0  0  0
    0.7510   -0.9130   -5.9980 C   0  0  0  0  0  0  0  0  0  0  0  0
   -0.5470   -0.3770   -6.5690 C   0  0  0  0  0  0  0  0  0  0  0  0
    1.8120   -0.9960   -7.0850 C   0  0  0  0  0  0  0  0  0  0  0  0
    0.7060    1.5670   -2.2240 N   0  0  0  0  0  0  0  0  0  0  0  0
    1.1500    2.5640   -1.2630 C   0  0  2  0  0  0  0  0  0  0  0  0
    0.7130    2.2200    0.1610 C   0  0  0  0  0  0  0  0  0  0  0  0
    1.0880    2.8950    1.1100 O   0  0  0  0  0  0  0  0  0  0  0  0
    0.6050    3.9320   -1.6740 C   0  0  0  0  0  0  0  0  0  0  0  0
   -0.8580    4.0390   -1.3230 C   0  0  0  0  0  0  0  0  0  0  0  0
    1.4270    5.0160   -1.0210 C   0  0  0  0  0  0  0  0  0  0  0  0
   -0.0610    1.2030    0.3130 N   0  0  0  0  0  0  0  0  0  0  0  0
   -0.5590    0.8140    1.6260 C   0  0  2  0  0  0  0  0  0  0  0  0
    0.5990    0.5380    2.5780 C   0  0  0  0  0  0  0  0  0  0  0  0
    0.5000    0.7650    3.7730 O   0  0  0  0  0  0  0  0  0  0  0  0
   -1.4480   -0.4180    1.4950 C   0  0  0  0  0  0  0  0  0  0  0  0
   -2.8550   -0.0660    1.1480 C   0  0  2  0  0  0  0  0  0  0  0  0
   -3.9000   -0.9600    1.2240 N   0  3  0  0  0  0  0  0  0  0  0  0
   -3.3950    1.1040    0.7080 C   0  0  0  0  0  0  0  0  0  0  0  0
   -5.0050   -0.3610    0.8600 C   0  0  0  0  0  0  0  0  0  0  0  0
   -4.7320    0.8960    0.5400 N   0  0  2  0  0  0  0  0  0  0  0  0
    1.6970    0.0620    2.0510 N   0  0  0  0  0  0  0  0  0  0  0  0
    2.8740   -0.2300    2.8640 C   0  0  2  0  0  0  0  0  0  0  0  0
    3.6260    1.0560    3.1830 C   0  0  0  0  0  0  0  0  0  0  0  0
    4.3070    1.1490    4.1950 O   0  0  0  0  0  0  0  0  0  0  0  0
    3.7930   -1.1840    2.1000 C   0  0  0  0  0  0  0  0  0  0  0  0
    3.0830   -2.4310    1.5820 C   0  0  0  0  0  0  0  0  0  0  0  0
    3.9870   -3.2060    0.6320 C   0  0  0  0  0  0  0  0  0  0  0  0
    2.6760   -3.3110    2.7590 C   0  0  0  0  0  0  0  0  0  0  0  0
    3.5240    2.0610    2.3290 N   0  0  0  0  0  0  0  0  0  0  0  0
    4.2160    3.3280    2.5140 C   0  0  2  0  0  0  0  0  0  0  0  0
    3.4320    4.2450    3.4470 C   0  0  0  0  0  0  0  0  0  0  0  0
    3.9110    5.3050    3.8240 O   0  0  0  0  0  0  0  0  0  0  0  0
    4.4330    4.0180    1.1610 C   0  0  0  0  0  0  0  0  0  0  0  0
    5.6480    3.4460    0.4150 C   0  0  0  0  0  0  0  0  0  0  0  0
    5.4480    1.9880    0.0430 C   0  0  0  0  0  0  0  0  0  0  0  0
    6.6640    1.4430   -0.7140 C   0  0  0  0  0  0  0  0  0  0  0  0
    7.6930    0.9580    0.2200 N   0  3  0  0  0  0  0  0  0  0  0  0
    2.2740    3.8300    3.7980 N   0  0  0  0  0  0  0  0  0  0  0  0
    1.4610    4.6190    4.7030 C   0  0  2  0  0  0  0  0  0  0  0  0
    1.9890    4.5270    6.1550 C   0  0  0  0  0  0  0  0  0  0  0  0
    3.2090    4.3940    6.3440 O   0  0  0  0  0  0  0  0  0  0  0  0
    0.0020    4.1620    4.6010 C   0  0  0  0  0  0  0  0  0  0  0  0
   -0.7610    4.8120    3.4800 C   0  0  0  0  0  0  0  0  0  0  0  0
   -2.1750    4.3070    3.3280 C   0  0  0  0  0  0  0  0  0  0  0  0
   -2.9840    4.6270    4.5720 C   0  0  0  0  0  0  0  0  0  0  0  0
   -2.9830    6.0790    4.8870 N   0  3  0  0  0  0  0  0  0  0  0  0
    1.2360    4.5590    7.1000 O   0  5  0  0  0  0  0  0  0  0  0  0
   -6.0471    3.3453   -1.9527 H   0  0  0  0  0  0  0  0  0  0  0  0
   -5.1309    2.6766   -0.7330 H   0  0  0  0  0  0  0  0  0  0  0  0
   -6.4246    1.8352   -1.3598 H   0  0  0  0  0  0  0  0  0  0  0  0
   -5.1677    1.8382   -2.2021 H   0  0  0  0  0  0  0  0  0  0  0  0
   -5.3542    1.6485   -3.4542 H   0  0  0  0  0  0  0  0  0  0  0  0
   -3.7639    0.3775   -1.0696 H   0  0  0  0  0  0  0  0  0  0  0  0
   -4.0569    3.8203   -2.9243 H   0  0  0  0  0  0  0  0  0  0  0  0
   -2.8835    2.6812   -2.2274 H   0  0  0  0  0  0  0  0  0  0  0  0
   -3.6008    2.6565   -3.3685 H   0  0  0  0  0  0  0  0  0  0  0  0
   -2.8879    0.6170   -4.5640 H   0  0  0  0  0  0  0  0  0  0  0  0
   -4.2626    1.3960   -5.3478 H   0  0  0  0  0  0  0  0  0  0  0  0
   -2.4590    0.9338   -6.9805 H   0  0  0  0  0  0  0  0  0  0  0  0
   -1.9058    5.2097   -3.8747 H   0  0  0  0  0  0  0  0  0  0  0  0
   -0.7848    2.9414   -8.0648 H   0  0  0  0  0  0  0  0  0  0  0  0
   -0.4477    6.2448   -5.4786 H   0  0  0  0  0  0  0  0  0  0  0  0
    0.1061    5.1441   -7.5545 H   0  0  0  0  0  0  0  0  0  0  0  0
   -3.7779   -0.2028   -3.6822 H   0  0  0  0  0  0  0  0  0  0  0  0
   -2.5265    0.5931   -2.7515 H   0  0  0  0  0  0  0  0  0  0  0  0
   -3.0299   -1.5235   -1.3746 H   0  0  0  0  0  0  0  0  0  0  0  0
   -2.6387   -3.2855   -3.1892 H   0  0  0  0  0  0  0  0  0  0  0  0
   -4.2720   -2.5933   -3.0674 H   0  0  0  0  0  0  0  0  0  0  0  0
   -3.0745   -0.9624   -4.8796 H   0  0  0  0  0  0  0  0  0  0  0  0
   -2.1778   -3.7636   -5.4637 H   0  0  0  0  0  0  0  0  0  0  0  0
   -1.1367   -2.4230   -5.0489 H   0  0  0  0  0  0  0  0  0  0  0  0
   -2.0372   -2.3990   -6.5460 H   0  0  0  0  0  0  0  0  0  0  0  0
   -4.6832   -3.4361   -5.4201 H   0  0  0  0  0  0  0  0  0  0  0  0
   -4.4999   -2.0804   -6.5071 H   0  0  0  0  0  0  0  0  0  0  0  0
   -5.3308   -1.8730   -4.9840 H   0  0  0  0  0  0  0  0  0  0  0  0
   -1.1915   -0.1302   -4.0457 H   0  0  0  0  0  0  0  0  0  0  0  0
    1.2323   -1.4575   -3.2610 H   0  0  0  0  0  0  0  0  0  0  0  0
    0.8424    0.9666   -4.9947 H   0  0  0  0  0  0  0  0  0  0  0  0
    2.3073   -0.0480   -4.8662 H   0  0  0  0  0  0  0  0  0  0  0  0
    0.5754   -1.8970   -5.6161 H   0  0  0  0  0  0  0  0  0  0  0  0
   -0.3869    0.6079   -6.9553 H   0  0  0  0  0  0  0  0  0  0  0  0
   -1.2881   -0.3416   -5.7980 H   0  0  0  0  0  0  0  0  0  0  0  0
   -0.8821   -1.0190   -7.3567 H   0  0  0  0  0  0  0  0  0  0  0  0
    1.9984   -0.0180   -7.4769 H   0  0  0  0  0  0  0  0  0  0  0  0
    1.4682   -1.6356   -7.8709 H   0  0  0  0  0  0  0  0  0  0  0  0
    2.7157   -1.3928   -6.6718 H   0  0  0  0  0  0  0  0  0  0  0  0
   -0.1069    1.7299   -2.7550 H   0  0  0  0  0  0  0  0  0  0  0  0
    2.2198    2.5819   -1.2650 H   0  0  0  0  0  0  0  0  0  0  0  0
    0.6830    4.0518   -2.7344 H   0  0  0  0  0  0  0  0  0  0  0  0
   -0.9806    3.9242   -0.2663 H   0  0  0  0  0  0  0  0  0  0  0  0
   -1.4037    3.2714   -1.8308 H   0  0  0  0  0  0  0  0  0  0  0  0
   -1.2276    4.9973   -1.6229 H   0  0  0  0  0  0  0  0  0  0  0  0
    1.3656    4.9183    0.0428 H   0  0  0  0  0  0  0  0  0  0  0  0
    1.0508    5.9740   -1.3135 H   0  0  0  0  0  0  0  0  0  0  0  0
    2.4475    4.9243   -1.3292 H   0  0  0  0  0  0  0  0  0  0  0  0
   -0.3227    0.6757   -0.4761 H   0  0  0  0  0  0  0  0  0  0  0  0
   -1.1369    1.6188    2.0300 H   0  0  0  0  0  0  0  0  0  0  0  0
   -1.0515   -1.0484    0.7267 H   0  0  0  0  0  0  0  0  0  0  0  0
   -1.4591   -0.9160    2.4420 H   0  0  0  0  0  0  0  0  0  0  0  0
   -1.8071    0.0620    1.3225 H   0  0  0  0  0  0  0  0  0  0  0  0
   -3.7195   -1.7495    0.6039 H   0  0  0  0  0  0  0  0  0  0  0  0
   -3.9928   -1.2986    2.1817 H   0  0  0  0  0  0  0  0  0  0  0  0
   -3.2326    1.8766    1.4302 H   0  0  0  0  0  0  0  0  0  0  0  0
   -2.9407    1.4085   -0.2116 H   0  0  0  0  0  0  0  0  0  0  0  0
   -5.4227   -0.8637    0.0129 H   0  0  0  0  0  0  0  0  0  0  0  0
   -5.7091   -0.3831    1.6654 H   0  0  0  0  0  0  0  0  0  0  0  0
    1.7309   -0.1037    1.0811 H   0  0  0  0  0  0  0  0  0  0  0  0
    2.5618   -0.6848    3.7808 H   0  0  0  0  0  0  0  0  0  0  0  0
    4.2070   -0.6587    1.2648 H   0  0  0  0  0  0  0  0  0  0  0  0
    4.5448   -1.5130    2.7866 H   0  0  0  0  0  0  0  0  0  0  0  0
    2.2077   -2.1343    1.0429 H   0  0  0  0  0  0  0  0  0  0  0  0
    4.8706   -3.5132    1.1515 H   0  0  0  0  0  0  0  0  0  0  0  0
    4.2575   -2.5804   -0.1928 H   0  0  0  0  0  0  0  0  0  0  0  0
    3.4679   -4.0688    0.2700 H   0  0  0  0  0  0  0  0  0  0  0  0
    3.5496   -3.6094    3.3001 H   0  0  0  0  0  0  0  0  0  0  0  0
    2.1674   -4.1795    2.3959 H   0  0  0  0  0  0  0  0  0  0  0  0
    2.0254   -2.7616    3.4069 H   0  0  0  0  0  0  0  0  0  0  0  0
    2.9552    1.9470    1.5336 H   0  0  0  0  0  0  0  0  0  0  0  0
    5.1675    3.1255    2.9597 H   0  0  0  0  0  0  0  0  0  0  0  0
    3.5600    3.8794    0.5580 H   0  0  0  0  0  0  0  0  0  0  0  0
    4.6146    5.0566    1.3436 H   0  0  0  0  0  0  0  0  0  0  0  0
    5.8036    4.0130   -0.4790 H   0  0  0  0  0  0  0  0  0  0  0  0
    6.4962    3.5096    1.0642 H   0  0  0  0  0  0  0  0  0  0  0  0
    5.3060    1.4154    0.9356 H   0  0  0  0  0  0  0  0  0  0  0  0
    4.5895    1.9125   -0.5912 H   0  0  0  0  0  0  0  0  0  0  0  0
    7.0789    2.2231   -1.3174 H   0  0  0  0  0  0  0  0  0  0  0  0
    6.3460    0.6247   -1.3257 H   0  0  0  0  0  0  0  0  0  0  0  0
    8.0063    1.7283    0.8107 H   0  0  0  0  0  0  0  0  0  0  0  0
    8.4848    0.5903   -0.3075 H   0  0  0  0  0  0  0  0  0  0  0  0
    7.3010    0.2193    0.8041 H   0  0  0  0  0  0  0  0  0  0  0  0
    8.0136    1.2522   -0.7025 H   0  0  0  0  0  0  0  0  0  0  0  0
    1.9340    2.9729    3.4529 H   0  0  0  0  0  0  0  0  0  0  0  0
    1.5185    5.6494    4.4203 H   0  0  0  0  0  0  0  0  0  0  0  0
   -0.0098    3.1031    4.4475 H   0  0  0  0  0  0  0  0  0  0  0  0
   -0.4788    4.4493    5.5127 H   0  0  0  0  0  0  0  0  0  0  0  0
   -0.7976    5.8654    3.6641 H   0  0  0  0  0  0  0  0  0  0  0  0
   -0.2463    4.5705    2.5736 H   0  0  0  0  0  0  0  0  0  0  0  0
   -2.1577    3.2473    3.1809 H   0  0  0  0  0  0  0  0  0  0  0  0
   -2.6275    4.7862    2.4851 H   0  0  0  0  0  0  0  0  0  0  0  0
   -2.5659    4.0948    5.4007 H   0  0  0  0  0  0  0  0  0  0  0  0
   -3.9962    4.3323    4.3891 H   0  0  0  0  0  0  0  0  0  0  0  0
   -2.0274    6.3874    5.0663 H   0  0  0  0  0  0  0  0  0  0  0  0
   -3.5555    6.2479    5.7141 H   0  0  0  0  0  0  0  0  0  0  0  0
   -3.3654    6.5986    4.0969 H   0  0  0  0  0  0  0  0  0  0  0  0
   -3.2598    5.4618    4.1236 H   0  0  0  0  0  0  0  0  0  0  0  0
  1 75  1  0  0  0  0
  1 76  1  0  0  0  0
  1 77  1  0  0  0  0
  1 78  1  0  0  0  0
  2  3  1  0  0  0  0
  2  1  1  0  0  0  0
  2 79  1  6  0  0  0
  3  4  1  0  0  0  0
  3 80  1  1  0  0  0
  5  2  1  0  0  0  0
  5 81  1  0  0  0  0
  5 82  1  0  0  0  0
  6  5  1  0  0  0  0
  6 83  1  6  0  0  0
  7  6  1  0  0  0  0
  7 84  1  0  0  0  0
  7 85  1  0  0  0  0
  8 11  1  0  0  0  0
  8  6  1  0  0  0  0
  9 10  1  0  0  0  0
  9  7  1  0  0  0  0
  9 86  1  0  0  0  0
 10  8  2  0  0  0  0
 11 87  1  0  0  0  0
 12 14  2  0  0  0  0
 12 10  1  0  0  0  0
 12 88  1  0  0  0  0
 13 11  2  0  0  0  0
 13 89  1  0  0  0  0
 14 13  1  0  0  0  0
 14 90  1  0  0  0  0
 15 16  1  0  0  0  0
 15  3  1  0  0  0  0
 15 91  1  0  0  0  0
 15 92  1  0  0  0  0
 16 93  1  1  0  0  0
 17 16  1  0  0  0  0
 17 18  2  0  0  0  0
 19 16  1  0  0  0  0
 19 94  1  0  0  0  0
 19 95  1  0  0  0  0
 20 19  1  0  0  0  0
 20 96  1  0  0  0  0
 21 20  1  0  0  0  0
 21 97  1  0  0  0  0
 21 98  1  0  0  0  0
 21 99  1  0  0  0  0
 22 20  1  0  0  0  0
 22100  1  0  0  0  0
 22101  1  0  0  0  0
 22102  1  0  0  0  0
 23 17  1  0  0  0  0
 23103  1  0  0  0  0
 24 23  1  0  0  0  0
 24 25  1  0  0  0  0
 24104  1  1  0  0  0
 25 31  1  0  0  0  0
 25 26  2  0  0  0  0
 27 24  1  0  0  0  0
 27105  1  0  0  0  0
 27106  1  0  0  0  0
 28 27  1  0  0  0  0
 28107  1  0  0  0  0
 29 28  1  0  0  0  0
 29108  1  0  0  0  0
 29109  1  0  0  0  0
 29110  1  0  0  0  0
 30 28  1  0  0  0  0
 30111  1  0  0  0  0
 30112  1  0  0  0  0
 30113  1  0  0  0  0
 31 32  1  0  0  0  0
 31114  1  0  0  0  0
 32 33  1  0  0  0  0
 32115  1  6  0  0  0
 33 38  1  0  0  0  0
 33 34  2  0  0  0  0
 35 36  1  0  0  0  0
 35 32  1  0  0  0  0
 35 37  1  0  0  0  0
 35116  1  0  0  0  0
 36117  1  0  0  0  0
 36118  1  0  0  0  0
 36119  1  0  0  0  0
 37120  1  0  0  0  0
 37121  1  0  0  0  0
 37122  1  0  0  0  0
 38 39  1  0  0  0  0
 38123  1  0  0  0  0
 39 40  1  0  0  0  0
 39124  1  1  0  0  0
 40 41  2  0  0  0  0
 42 39  1  0  0  0  0
 42125  1  0  0  0  0
 42126  1  0  0  0  0
 43 44  1  0  0  0  0
 43 42  1  0  0  0  0
 43127  1  1  0  0  0
 44128  1  0  0  0  0
 44129  1  0  0  0  0
 45 43  1  0  0  0  0
 45130  1  0  0  0  0
 45131  1  0  0  0  0
 46 44  1  0  0  0  0
 46132  1  0  0  0  0
 46133  1  0  0  0  0
 47  4  1  6  0  0  0
 47 45  1  0  0  0  0
 47 46  1  0  0  0  0
 48 40  1  0  0  0  0
 48 49  1  0  0  0  0
 48134  1  0  0  0  0
 49 50  1  0  0  0  0
 49135  1  1  0  0  0
 50 51  2  0  0  0  0
 52 49  1  0  0  0  0
 52136  1  0  0  0  0
 52137  1  0  0  0  0
 53 52  1  0  0  0  0
 53 55  1  0  0  0  0
 53138  1  0  0  0  0
 54 53  1  0  0  0  0
 54139  1  0  0  0  0
 54140  1  0  0  0  0
 54141  1  0  0  0  0
 55142  1  0  0  0  0
 55143  1  0  0  0  0
 55144  1  0  0  0  0
 56 57  1  0  0  0  0
 56 50  1  0  0  0  0
 56145  1  0  0  0  0
 57 58  1  0  0  0  0
 57146  1  1  0  0  0
 58 65  1  0  0  0  0
 58 59  2  0  0  0  0
 60 57  1  0  0  0  0
 60147  1  0  0  0  0
 60148  1  0  0  0  0
 61 60  1  0  0  0  0
 61149  1  0  0  0  0
 61150  1  0  0  0  0
 62 61  1  0  0  0  0
 62151  1  0  0  0  0
 62152  1  0  0  0  0
 63 62  1  0  0  0  0
 63 64  1  0  0  0  0
 63153  1  0  0  0  0
 63154  1  0  0  0  0
 64155  1  0  0  0  0
 64156  1  0  0  0  0
 64157  1  0  0  0  0
 64158  1  0  0  0  0
 65 66  1  0  0  0  0
 65159  1  0  0  0  0
 66 67  1  0  0  0  0
 66160  1  6  0  0  0
 67 68  2  0  0  0  0
 67 74  1  0  0  0  0
 69 66  1  0  0  0  0
 69161  1  0  0  0  0
 69162  1  0  0  0  0
 70 69  1  0  0  0  0
 70163  1  0  0  0  0
 70164  1  0  0  0  0
 71 70  1  0  0  0  0
 71 72  1  0  0  0  0
 71165  1  0  0  0  0
 71166  1  0  0  0  0
 72 73  1  0  0  0  0
 72167  1  0  0  0  0
 72168  1  0  0  0  0
 73169  1  0  0  0  0
 73170  1  0  0  0  0
 73171  1  0  0  0  0
 73172  1  0  0  0  0
M  CHG  6   1   1  15   1  44   1  64   1  73   1  74  -1
M  END
>  <REMARK>
   1 CREATED WITH OPENMM 8.5.2, 2026-07-29

$$$$
