/mnt/hpc/home/25menglei/25wenshaohua/MD/yzy/docking/dc/peptides/pdb/yhhllcrr.pdb
 OpenBabel07292620093D

160162  0  0  1  0  0  0  0  0999 V2000
    3.3310    1.7450   -8.7860 N   0  3  0  0  0  0  0  0  0  0  0  0
    3.5970    2.3010   -7.4370 C   0  0  2  0  0  0  0  0  0  0  0  0
    2.8550    1.5040   -6.3610 C   0  0  0  0  0  0  0  0  0  0  0  0
    1.6720    1.2100   -6.5090 O   0  0  0  0  0  0  0  0  0  0  0  0
    3.1170    3.7430   -7.3890 C   0  0  0  0  0  0  0  0  0  0  0  0
    4.2400    4.6890   -7.7070 C   0  0  0  0  0  0  0  0  0  0  0  0
    5.2770    4.8770   -6.7980 C   0  0  0  0  0  0  0  0  0  0  0  0
    4.2440    5.4000   -8.9040 C   0  0  0  0  0  0  0  0  0  0  0  0
    6.3160    5.7500   -7.0980 C   0  0  0  0  0  0  0  0  0  0  0  0
    5.2830    6.2760   -9.2060 C   0  0  0  0  0  0  0  0  0  0  0  0
    6.3060    6.4440   -8.3010 C   0  0  0  0  0  0  0  0  0  0  0  0
    7.3380    7.3080   -8.5910 O   0  0  0  0  0  0  0  0  0  0  0  0
    3.5150    1.1660   -5.3020 N   0  0  0  0  0  0  0  0  0  0  0  0
    2.8970    0.4070   -4.2030 C   0  0  2  0  0  0  0  0  0  0  0  0
    2.6050    1.3240   -3.0130 C   0  0  0  0  0  0  0  0  0  0  0  0
    3.4320    1.4820   -2.1300 O   0  0  0  0  0  0  0  0  0  0  0  0
    3.8480   -0.7140   -3.7760 C   0  0  0  0  0  0  0  0  0  0  0  0
    3.5230   -2.0150   -4.4440 C   0  0  0  0  0  0  0  0  0  0  0  0
    3.6300   -2.2200   -5.8000 N   0  0  0  0  0  0  0  0  0  0  0  0
    3.0980   -3.1930   -3.9070 C   0  0  0  0  0  0  0  0  0  0  0  0
    3.2670   -3.4720   -6.0570 C   0  0  0  0  0  0  0  0  0  0  0  0
    2.9490   -4.0890   -4.9330 N   0  0  0  0  0  0  0  0  0  0  0  0
    1.4240    1.9180   -2.9830 N   0  0  0  0  0  0  0  0  0  0  0  0
    1.0410    2.8130   -1.8800 C   0  0  2  0  0  0  0  0  0  0  0  0
   -0.4790    2.8110   -1.6580 C   0  0  0  0  0  0  0  0  0  0  0  0
   -1.0190    3.6640   -0.9810 O   0  0  0  0  0  0  0  0  0  0  0  0
    1.5150    4.2270   -2.2130 C   0  0  0  0  0  0  0  0  0  0  0  0
    0.8030    4.7660   -3.4290 C   0  0  2  0  0  0  0  0  0  0  0  0
    1.1250    4.4330   -4.7200 N   0  0  0  0  0  0  0  0  0  0  0  0
   -0.2330    5.6470   -3.4910 C   0  0  0  0  0  0  0  0  0  0  0  0
    0.3130    5.0880   -5.5390 C   0  0  0  0  0  0  0  0  0  0  0  0
   -0.5310    5.8400   -4.8320 N   0  0  0  0  0  0  0  0  0  0  0  0
   -1.1740    1.8500   -2.2320 N   0  0  0  0  0  0  0  0  0  0  0  0
   -2.6340    1.7490   -2.0780 C   0  0  2  0  0  0  0  0  0  0  0  0
   -3.0410    0.4200   -1.4470 C   0  0  0  0  0  0  0  0  0  0  0  0
   -4.1360   -0.0790   -1.6810 O   0  0  0  0  0  0  0  0  0  0  0  0
   -3.2770    1.8790   -3.4680 C   0  0  0  0  0  0  0  0  0  0  0  0
   -3.1780    3.2860   -4.0530 C   0  0  0  0  0  0  0  0  0  0  0  0
   -3.6140    3.2790   -5.5190 C   0  0  0  0  0  0  0  0  0  0  0  0
   -4.0990    4.2290   -3.2530 C   0  0  0  0  0  0  0  0  0  0  0  0
   -2.1700   -0.1460   -0.6630 N   0  0  0  0  0  0  0  0  0  0  0  0
   -2.4550   -1.4410   -0.0320 C   0  0  2  0  0  0  0  0  0  0  0  0
   -2.1410   -1.4010    1.4710 C   0  0  0  0  0  0  0  0  0  0  0  0
   -2.9520   -1.8010    2.2960 O   0  0  0  0  0  0  0  0  0  0  0  0
   -1.6240   -2.5250   -0.7310 C   0  0  0  0  0  0  0  0  0  0  0  0
   -2.3640   -3.8620   -0.9040 C   0  0  0  0  0  0  0  0  0  0  0  0
   -1.5560   -4.8080   -1.7830 C   0  0  0  0  0  0  0  0  0  0  0  0
   -2.6180   -4.5100    0.4480 C   0  0  0  0  0  0  0  0  0  0  0  0
   -0.9950   -0.9320    1.8240 N   0  0  0  0  0  0  0  0  0  0  0  0
   -0.5810   -0.8680    3.2360 C   0  0  2  0  0  0  0  0  0  0  0  0
   -0.6110    0.5760    3.7610 C   0  0  0  0  0  0  0  0  0  0  0  0
    0.3680    1.0810    4.2920 O   0  0  0  0  0  0  0  0  0  0  0  0
    0.8290   -1.4540    3.3580 C   0  0  0  0  0  0  0  0  0  0  0  0
    0.8270   -3.2210    2.9270 S   0  0  0  0  0  0  0  0  0  0  0  0
   -1.7500    1.2180    3.6120 N   0  0  0  0  0  0  0  0  0  0  0  0
   -1.8920    2.6190    4.0600 C   0  0  2  0  0  0  0  0  0  0  0  0
   -2.9460    2.7430    5.1700 C   0  0  0  0  0  0  0  0  0  0  0  0
   -3.8040    3.6130    5.1320 O   0  0  0  0  0  0  0  0  0  0  0  0
   -2.2870    3.4720    2.8540 C   0  0  0  0  0  0  0  0  0  0  0  0
   -1.7260    4.8720    2.9540 C   0  0  0  0  0  0  0  0  0  0  0  0
   -2.0910    5.6830    1.7050 C   0  0  0  0  0  0  0  0  0  0  0  0
   -3.4480    6.2210    1.8230 N   0  0  0  0  0  0  0  0  0  0  0  0
   -4.0770    6.8610    0.8320 C   0  0  0  0  0  0  0  0  0  0  0  0
   -3.5050    6.9900   -0.3460 N   0  3  0  0  0  0  0  0  0  0  0  0
   -5.2760    7.3610    1.0330 N   0  0  0  0  0  0  0  0  0  0  0  0
   -2.8820    1.8820    6.1550 N   0  0  0  0  0  0  0  0  0  0  0  0
   -3.8520    1.8940    7.2620 C   0  0  2  0  0  0  0  0  0  0  0  0
   -3.2860    2.6340    8.4830 C   0  0  0  0  0  0  0  0  0  0  0  0
   -3.8890    3.6310    8.9060 O   0  0  0  0  0  0  0  0  0  0  0  0
   -4.2120    0.4430    7.6480 C   0  0  0  0  0  0  0  0  0  0  0  0
   -4.8850   -0.2770    6.4950 C   0  0  0  0  0  0  0  0  0  0  0  0
   -5.2740   -1.6950    6.9030 C   0  0  0  0  0  0  0  0  0  0  0  0
   -5.5700   -2.5000    5.7140 N   0  0  0  0  0  0  0  0  0  0  0  0
   -6.1870   -3.6750    5.7650 C   0  0  0  0  0  0  0  0  0  0  0  0
   -6.5630   -4.1870    6.9220 N   0  0  0  0  0  0  0  0  0  0  0  0
   -6.4150   -4.3430    4.6540 N   0  3  0  0  0  0  0  0  0  0  0  0
   -2.2470    2.2300    9.0050 O   0  5  0  0  0  0  0  0  0  0  0  0
    3.8350    2.2914   -9.4844 H   0  0  0  0  0  0  0  0  0  0  0  0
    2.3304    1.7861   -8.9794 H   0  0  0  0  0  0  0  0  0  0  0  0
    3.6447    0.7751   -8.8219 H   0  0  0  0  0  0  0  0  0  0  0  0
    2.5580    1.1709   -9.1226 H   0  0  0  0  0  0  0  0  0  0  0  0
    4.6488    2.2443   -7.2490 H   0  0  0  0  0  0  0  0  0  0  0  0
    2.3328    3.8759   -8.1048 H   0  0  0  0  0  0  0  0  0  0  0  0
    2.7598    3.9533   -6.4026 H   0  0  0  0  0  0  0  0  0  0  0  0
    5.2744    4.3677   -5.9004 H   0  0  0  0  0  0  0  0  0  0  0  0
    3.4690    5.2764   -9.5741 H   0  0  0  0  0  0  0  0  0  0  0  0
    7.0914    5.8820   -6.4299 H   0  0  0  0  0  0  0  0  0  0  0  0
    5.2860    6.7937  -10.0987 H   0  0  0  0  0  0  0  0  0  0  0  0
    7.3400    7.7806   -9.4001 H   0  0  0  0  0  0  0  0  0  0  0  0
    4.4620    1.4248   -5.2283 H   0  0  0  0  0  0  0  0  0  0  0  0
    1.9710   -0.0097   -4.5403 H   0  0  0  0  0  0  0  0  0  0  0  0
    4.8482   -0.4345   -4.0336 H   0  0  0  0  0  0  0  0  0  0  0  0
    3.7424   -0.8508   -2.7201 H   0  0  0  0  0  0  0  0  0  0  0  0
    3.9241   -1.5553   -6.4640 H   0  0  0  0  0  0  0  0  0  0  0  0
    2.9203   -3.3773   -2.9073 H   0  0  0  0  0  0  0  0  0  0  0  0
    3.2378   -3.8993   -6.9959 H   0  0  0  0  0  0  0  0  0  0  0  0
    0.7863    1.7576   -3.7157 H   0  0  0  0  0  0  0  0  0  0  0  0
    1.5003    2.4669   -0.9777 H   0  0  0  0  0  0  0  0  0  0  0  0
    1.3165    4.8676   -1.3792 H   0  0  0  0  0  0  0  0  0  0  0  0
    2.5642    4.1938   -2.4203 H   0  0  0  0  0  0  0  0  0  0  0  0
    1.1017    4.5070   -2.4347 H   0  0  0  0  0  0  0  0  0  0  0  0
    1.8388    3.8122   -4.9928 H   0  0  0  0  0  0  0  0  0  0  0  0
   -1.0843    5.2475   -2.9806 H   0  0  0  0  0  0  0  0  0  0  0  0
    0.0292    6.5734   -3.0242 H   0  0  0  0  0  0  0  0  0  0  0  0
    0.3317    5.0250   -6.5689 H   0  0  0  0  0  0  0  0  0  0  0  0
   -0.7033    1.1806   -2.7794 H   0  0  0  0  0  0  0  0  0  0  0  0
   -2.9688    2.5309   -1.4288 H   0  0  0  0  0  0  0  0  0  0  0  0
   -2.7864    1.1997   -4.1335 H   0  0  0  0  0  0  0  0  0  0  0  0
   -4.3175    1.6558   -3.3567 H   0  0  0  0  0  0  0  0  0  0  0  0
   -2.1641    3.6226   -3.9925 H   0  0  0  0  0  0  0  0  0  0  0  0
   -4.6276    2.9433   -5.5880 H   0  0  0  0  0  0  0  0  0  0  0  0
   -2.9813    2.6200   -6.0761 H   0  0  0  0  0  0  0  0  0  0  0  0
   -3.5380    4.2687   -5.9184 H   0  0  0  0  0  0  0  0  0  0  0  0
   -5.1092    3.8829   -3.3207 H   0  0  0  0  0  0  0  0  0  0  0  0
   -4.0331    5.2181   -3.6557 H   0  0  0  0  0  0  0  0  0  0  0  0
   -3.7938    4.2403   -2.2275 H   0  0  0  0  0  0  0  0  0  0  0  0
   -1.3092    0.2996   -0.4908 H   0  0  0  0  0  0  0  0  0  0  0  0
   -3.4964   -1.6641   -0.1353 H   0  0  0  0  0  0  0  0  0  0  0  0
   -1.3474   -2.1651   -1.6999 H   0  0  0  0  0  0  0  0  0  0  0  0
   -0.7763   -2.7174   -0.1071 H   0  0  0  0  0  0  0  0  0  0  0  0
   -3.3035   -3.6642   -1.3763 H   0  0  0  0  0  0  0  0  0  0  0  0
   -0.6143   -5.0108   -1.3172 H   0  0  0  0  0  0  0  0  0  0  0  0
   -1.3912   -4.3543   -2.7379 H   0  0  0  0  0  0  0  0  0  0  0  0
   -2.0949   -5.7234   -1.9113 H   0  0  0  0  0  0  0  0  0  0  0  0
   -1.6833   -4.7116    0.9281 H   0  0  0  0  0  0  0  0  0  0  0  0
   -3.1528   -5.4264    0.3095 H   0  0  0  0  0  0  0  0  0  0  0  0
   -3.1967   -3.8480    1.0577 H   0  0  0  0  0  0  0  0  0  0  0  0
   -0.3774   -0.6067    1.1297 H   0  0  0  0  0  0  0  0  0  0  0  0
   -1.2662   -1.4358    3.8301 H   0  0  0  0  0  0  0  0  0  0  0  0
    1.4858   -0.9310    2.6948 H   0  0  0  0  0  0  0  0  0  0  0  0
    1.1613   -1.3459    4.3693 H   0  0  0  0  0  0  0  0  0  0  0  0
    0.4063   -3.3739    1.6428 H   0  0  0  0  0  0  0  0  0  0  0  0
   -2.5163    0.7597    3.1973 H   0  0  0  0  0  0  0  0  0  0  0  0
   -0.9615    2.9584    4.4647 H   0  0  0  0  0  0  0  0  0  0  0  0
   -1.9118    3.0104    1.9646 H   0  0  0  0  0  0  0  0  0  0  0  0
   -3.3545    3.5406    2.8283 H   0  0  0  0  0  0  0  0  0  0  0  0
   -2.1321    5.3539    3.8187 H   0  0  0  0  0  0  0  0  0  0  0  0
   -0.6604    4.8148    3.0323 H   0  0  0  0  0  0  0  0  0  0  0  0
   -1.3994    6.4921    1.5957 H   0  0  0  0  0  0  0  0  0  0  0  0
   -2.0455    5.0417    0.8497 H   0  0  0  0  0  0  0  0  0  0  0  0
   -3.9224    6.1052    2.6778 H   0  0  0  0  0  0  0  0  0  0  0  0
   -3.9735    7.4624   -1.0716 H   0  0  0  0  0  0  0  0  0  0  0  0
   -2.6085    6.6141   -0.5017 H   0  0  0  0  0  0  0  0  0  0  0  0
   -3.2395    6.0943   -0.0355 H   0  0  0  0  0  0  0  0  0  0  0  0
   -5.7411    7.8327    0.3047 H   0  0  0  0  0  0  0  0  0  0  0  0
   -5.7089    7.2638    1.9119 H   0  0  0  0  0  0  0  0  0  0  0  0
   -2.1647    1.2077    6.1549 H   0  0  0  0  0  0  0  0  0  0  0  0
   -4.7315    2.4100    6.9377 H   0  0  0  0  0  0  0  0  0  0  0  0
   -3.3172   -0.0806    7.9126 H   0  0  0  0  0  0  0  0  0  0  0  0
   -4.8904    0.4693    8.4750 H   0  0  0  0  0  0  0  0  0  0  0  0
   -5.7648    0.2610    6.2096 H   0  0  0  0  0  0  0  0  0  0  0  0
   -4.2012   -0.3290    5.6737 H   0  0  0  0  0  0  0  0  0  0  0  0
   -4.4645   -2.1429    7.4407 H   0  0  0  0  0  0  0  0  0  0  0  0
   -6.1452   -1.6537    7.5228 H   0  0  0  0  0  0  0  0  0  0  0  0
   -5.2979   -2.1523    4.8340 H   0  0  0  0  0  0  0  0  0  0  0  0
   -7.0198   -5.0587    6.9494 H   0  0  0  0  0  0  0  0  0  0  0  0
   -6.3867   -3.6972    7.7576 H   0  0  0  0  0  0  0  0  0  0  0  0
   -6.1371   -3.9669    3.7876 H   0  0  0  0  0  0  0  0  0  0  0  0
   -6.8634   -5.2187    4.6894 H   0  0  0  0  0  0  0  0  0  0  0  0
   -6.7495   -5.1835    4.2655 H   0  0  0  0  0  0  0  0  0  0  0  0
  1  2  1  0  0  0  0
  1 78  1  0  0  0  0
  1 79  1  0  0  0  0
  1 80  1  0  0  0  0
  1 81  1  0  0  0  0
  2  5  1  0  0  0  0
  2  3  1  0  0  0  0
  2 82  1  1  0  0  0
  3 13  1  0  0  0  0
  4  3  2  0  0  0  0
  5 83  1  0  0  0  0
  5 84  1  0  0  0  0
  6  5  1  0  0  0  0
  6  7  1  0  0  0  0
  7 85  1  0  0  0  0
  8  6  2  0  0  0  0
  8 86  1  0  0  0  0
  9  7  2  0  0  0  0
  9 87  1  0  0  0  0
 10  8  1  0  0  0  0
 10 11  2  0  0  0  0
 10 88  1  0  0  0  0
 11  9  1  0  0  0  0
 12 11  1  0  0  0  0
 12 89  1  0  0  0  0
 13 14  1  0  0  0  0
 13 90  1  0  0  0  0
 14 17  1  0  0  0  0
 14 15  1  0  0  0  0
 14 91  1  6  0  0  0
 15 23  1  0  0  0  0
 15 16  2  0  0  0  0
 17 92  1  0  0  0  0
 17 93  1  0  0  0  0
 18 20  2  0  0  0  0
 18 17  1  0  0  0  0
 19 18  1  0  0  0  0
 19 94  1  0  0  0  0
 20 95  1  0  0  0  0
 21 19  1  0  0  0  0
 21 22  2  0  0  0  0
 21 96  1  0  0  0  0
 22 20  1  0  0  0  0
 23 24  1  0  0  0  0
 23 97  1  0  0  0  0
 24 25  1  0  0  0  0
 24 98  1  1  0  0  0
 25 26  2  0  0  0  0
 27 24  1  0  0  0  0
 27 99  1  0  0  0  0
 27100  1  0  0  0  0
 28 27  1  0  0  0  0
 28101  1  1  0  0  0
 29 28  1  0  0  0  0
 29102  1  0  0  0  0
 30 28  1  0  0  0  0
 30103  1  0  0  0  0
 30104  1  0  0  0  0
 31 32  2  0  0  0  0
 31 29  1  0  0  0  0
 31105  1  0  0  0  0
 32 30  1  0  0  0  0
 33 34  1  0  0  0  0
 33 25  1  0  0  0  0
 33106  1  0  0  0  0
 34 35  1  0  0  0  0
 34107  1  1  0  0  0
 35 41  1  0  0  0  0
 36 35  2  0  0  0  0
 37 34  1  0  0  0  0
 37108  1  0  0  0  0
 37109  1  0  0  0  0
 38 37  1  0  0  0  0
 38 40  1  0  0  0  0
 38110  1  0  0  0  0
 39 38  1  0  0  0  0
 39111  1  0  0  0  0
 39112  1  0  0  0  0
 39113  1  0  0  0  0
 40114  1  0  0  0  0
 40115  1  0  0  0  0
 40116  1  0  0  0  0
 41 42  1  0  0  0  0
 41117  1  0  0  0  0
 42 43  1  0  0  0  0
 42118  1  6  0  0  0
 43 49  1  0  0  0  0
 43 44  2  0  0  0  0
 45 42  1  0  0  0  0
 45119  1  0  0  0  0
 45120  1  0  0  0  0
 46 45  1  0  0  0  0
 46 48  1  0  0  0  0
 46121  1  0  0  0  0
 47 46  1  0  0  0  0
 47122  1  0  0  0  0
 47123  1  0  0  0  0
 47124  1  0  0  0  0
 48125  1  0  0  0  0
 48126  1  0  0  0  0
 48127  1  0  0  0  0
 49 50  1  0  0  0  0
 49128  1  0  0  0  0
 50 53  1  0  0  0  0
 50 51  1  0  0  0  0
 50129  1  1  0  0  0
 51 52  2  0  0  0  0
 53130  1  0  0  0  0
 53131  1  0  0  0  0
 54 53  1  0  0  0  0
 54132  1  0  0  0  0
 55 51  1  0  0  0  0
 55 56  1  0  0  0  0
 55133  1  0  0  0  0
 56 57  1  0  0  0  0
 56134  1  1  0  0  0
 57 66  1  0  0  0  0
 58 57  2  0  0  0  0
 59 60  1  0  0  0  0
 59 56  1  0  0  0  0
 59135  1  0  0  0  0
 59136  1  0  0  0  0
 60137  1  0  0  0  0
 60138  1  0  0  0  0
 61 62  1  0  0  0  0
 61 60  1  0  0  0  0
 61139  1  0  0  0  0
 61140  1  0  0  0  0
 62141  1  0  0  0  0
 63 65  1  0  0  0  0
 63 62  1  0  0  0  0
 64 63  2  0  0  0  0
 64142  1  0  0  0  0
 64143  1  0  0  0  0
 64144  1  0  0  0  0
 65145  1  0  0  0  0
 65146  1  0  0  0  0
 66 67  1  0  0  0  0
 66147  1  0  0  0  0
 67 70  1  0  0  0  0
 67 68  1  0  0  0  0
 67148  1  6  0  0  0
 68 69  2  0  0  0  0
 68 77  1  0  0  0  0
 70149  1  0  0  0  0
 70150  1  0  0  0  0
 71 72  1  0  0  0  0
 71 70  1  0  0  0  0
 71151  1  0  0  0  0
 71152  1  0  0  0  0
 72153  1  0  0  0  0
 72154  1  0  0  0  0
 73 74  1  0  0  0  0
 73 72  1  0  0  0  0
 73155  1  0  0  0  0
 74 75  1  0  0  0  0
 75156  1  0  0  0  0
 75157  1  0  0  0  0
 76 74  2  0  0  0  0
 76158  1  0  0  0  0
 76159  1  0  0  0  0
 76160  1  0  0  0  0
M  CHG  4   1   1  64   1  76   1  77  -1
M  END
>  <REMARK>
   1 CREATED WITH OPENMM 8.5.2, 2026-07-29

$$$$
