/mnt/hpc/home/25menglei/25wenshaohua/MD/yzy/docking/dc/peptides/pdb/ylsllqr.pdb
 OpenBabel07292620093D

135135  0  0  1  0  0  0  0  0999 V2000
    5.4090   -0.3130    2.1060 N   0  3  0  0  0  0  0  0  0  0  0  0
    4.4200    0.5760    2.7340 C   0  0  2  0  0  0  0  0  0  0  0  0
    3.0060    0.0710    2.4270 C   0  0  0  0  0  0  0  0  0  0  0  0
    2.6570   -0.1060    1.2580 O   0  0  0  0  0  0  0  0  0  0  0  0
    4.6110    2.0040    2.2090 C   0  0  0  0  0  0  0  0  0  0  0  0
    4.3870    3.0680    3.2530 C   0  0  0  0  0  0  0  0  0  0  0  0
    5.1120    3.0650    4.4440 C   0  0  0  0  0  0  0  0  0  0  0  0
    3.4810    4.0950    3.0320 C   0  0  0  0  0  0  0  0  0  0  0  0
    4.9270    4.0560    5.4110 C   0  0  0  0  0  0  0  0  0  0  0  0
    3.3000    5.0980    4.0000 C   0  0  0  0  0  0  0  0  0  0  0  0
    4.0120    5.0730    5.1800 C   0  0  0  0  0  0  0  0  0  0  0  0
    3.8290    6.0410    6.1310 O   0  0  0  0  0  0  0  0  0  0  0  0
    2.2300   -0.1680    3.4310 N   0  0  0  0  0  0  0  0  0  0  0  0
    0.8770   -0.7000    3.2860 C   0  0  2  0  0  0  0  0  0  0  0  0
   -0.0890    0.2180    2.5180 C   0  0  0  0  0  0  0  0  0  0  0  0
   -1.1380   -0.2110    2.0670 O   0  0  0  0  0  0  0  0  0  0  0  0
    0.3160   -1.1390    4.6670 C   0  0  0  0  0  0  0  0  0  0  0  0
   -0.1190   -0.1090    5.7320 C   0  0  0  0  0  0  0  0  0  0  0  0
    0.9110    1.0250    5.9060 C   0  0  0  0  0  0  0  0  0  0  0  0
   -1.4880    0.4510    5.4350 C   0  0  0  0  0  0  0  0  0  0  0  0
    0.2830    1.4840    2.3560 N   0  0  0  0  0  0  0  0  0  0  0  0
   -0.5080    2.4670    1.6290 C   0  0  2  0  0  0  0  0  0  0  0  0
   -0.7700    2.0670    0.1800 C   0  0  0  0  0  0  0  0  0  0  0  0
   -1.8350    2.3490   -0.3570 O   0  0  0  0  0  0  0  0  0  0  0  0
    0.1920    3.8240    1.6870 C   0  0  0  0  0  0  0  0  0  0  0  0
    0.1730    4.3290    3.0180 O   0  0  0  0  0  0  0  0  0  0  0  0
    0.2010    1.3910   -0.4420 N   0  0  0  0  0  0  0  0  0  0  0  0
    0.0750    0.9640   -1.8210 C   0  0  2  0  0  0  0  0  0  0  0  0
   -0.9780   -0.1300   -2.0150 C   0  0  0  0  0  0  0  0  0  0  0  0
   -1.4570   -0.3400   -3.1270 O   0  0  0  0  0  0  0  0  0  0  0  0
    1.4450    0.5610   -2.3640 C   0  0  0  0  0  0  0  0  0  0  0  0
    2.3150   -0.2050   -1.3720 C   0  0  0  0  0  0  0  0  0  0  0  0
    2.2700   -1.6860   -1.6230 C   0  0  0  0  0  0  0  0  0  0  0  0
    3.7260    0.3150   -1.4480 C   0  0  0  0  0  0  0  0  0  0  0  0
   -1.3450   -0.7970   -0.9540 N   0  0  0  0  0  0  0  0  0  0  0  0
   -2.4100   -1.7930   -0.9940 C   0  0  2  0  0  0  0  0  0  0  0  0
   -3.7140   -1.2160   -0.4320 C   0  0  0  0  0  0  0  0  0  0  0  0
   -4.8000   -1.7060   -0.7290 O   0  0  0  0  0  0  0  0  0  0  0  0
   -1.9640   -3.0710   -0.2630 C   0  0  0  0  0  0  0  0  0  0  0  0
   -1.6550   -2.9290    1.2240 C   0  0  0  0  0  0  0  0  0  0  0  0
   -2.8720   -3.3020    2.0690 C   0  0  0  0  0  0  0  0  0  0  0  0
   -0.4960   -3.8300    1.5720 C   0  0  0  0  0  0  0  0  0  0  0  0
   -3.5950   -0.1900    0.3630 N   0  0  0  0  0  0  0  0  0  0  0  0
   -4.7290    0.5240    0.9260 C   0  0  2  0  0  0  0  0  0  0  0  0
   -5.2340    1.5700   -0.0490 C   0  0  0  0  0  0  0  0  0  0  0  0
   -6.4410    1.7130   -0.2350 O   0  0  0  0  0  0  0  0  0  0  0  0
   -4.3100    1.2100    2.2530 C   0  0  0  0  0  0  0  0  0  0  0  0
   -4.8270    0.5060    3.4960 C   0  0  0  0  0  0  0  0  0  0  0  0
   -6.3020    0.7550    3.7360 C   0  0  0  0  0  0  0  0  0  0  0  0
   -6.7380    1.8830    3.8840 O   0  0  0  0  0  0  0  0  0  0  0  0
   -7.0850   -0.3030    3.7970 N   0  0  0  0  0  0  0  0  0  0  0  0
   -4.2490    2.2690   -0.7080 N   0  0  0  0  0  0  0  0  0  0  0  0
   -4.4680    3.3420   -1.6800 C   0  0  2  0  0  0  0  0  0  0  0  0
   -5.4630    4.3710   -1.1900 C   0  0  0  0  0  0  0  0  0  0  0  0
   -5.0200    5.5420   -0.9530 O   0  5  0  0  0  0  0  0  0  0  0  0
   -4.8480    2.8040   -3.0630 C   0  0  0  0  0  0  0  0  0  0  0  0
   -6.1430    2.0270   -3.0930 C   0  0  0  0  0  0  0  0  0  0  0  0
   -5.8900    0.6020   -3.4630 C   0  0  0  0  0  0  0  0  0  0  0  0
   -7.1420   -0.1240   -3.5940 N   0  0  0  0  0  0  0  0  0  0  0  0
   -7.3760   -1.2990   -3.0410 C   0  0  0  0  0  0  0  0  0  0  0  0
   -6.4570   -1.8760   -2.2840 N   0  0  0  0  0  0  0  0  0  0  0  0
   -8.5270   -1.9030   -3.2500 N   0  3  0  0  0  0  0  0  0  0  0  0
   -6.6420    4.0780   -1.0330 O   0  0  0  0  0  0  0  0  0  0  0  0
    6.3491    0.0251    2.3117 H   0  0  0  0  0  0  0  0  0  0  0  0
    5.2646   -0.3229    1.0963 H   0  0  0  0  0  0  0  0  0  0  0  0
    5.2993   -1.2578    2.4744 H   0  0  0  0  0  0  0  0  0  0  0  0
    5.1949    0.1544    1.2250 H   0  0  0  0  0  0  0  0  0  0  0  0
    4.5574    0.5790    3.7951 H   0  0  0  0  0  0  0  0  0  0  0  0
    3.9194    2.1651    1.4086 H   0  0  0  0  0  0  0  0  0  0  0  0
    5.6294    2.0869    1.8912 H   0  0  0  0  0  0  0  0  0  0  0  0
    5.7998    2.3148    4.6147 H   0  0  0  0  0  0  0  0  0  0  0  0
    2.9384    4.1227    2.1546 H   0  0  0  0  0  0  0  0  0  0  0  0
    5.4667    4.0318    6.2903 H   0  0  0  0  0  0  0  0  0  0  0  0
    2.6272    5.8608    3.8255 H   0  0  0  0  0  0  0  0  0  0  0  0
    3.2133    6.7318    5.9839 H   0  0  0  0  0  0  0  0  0  0  0  0
    2.5661    0.0171    4.3376 H   0  0  0  0  0  0  0  0  0  0  0  0
    0.9574   -1.5658    2.6624 H   0  0  0  0  0  0  0  0  0  0  0  0
    1.0749   -1.7402    5.1225 H   0  0  0  0  0  0  0  0  0  0  0  0
   -0.6138   -1.5961    4.3997 H   0  0  0  0  0  0  0  0  0  0  0  0
   -0.1698   -0.6370    6.6612 H   0  0  0  0  0  0  0  0  0  0  0  0
    0.9901    1.5781    4.9935 H   0  0  0  0  0  0  0  0  0  0  0  0
    1.8642    0.6063    6.1530 H   0  0  0  0  0  0  0  0  0  0  0  0
    0.5936    1.6776    6.6923 H   0  0  0  0  0  0  0  0  0  0  0  0
   -1.4616    0.9847    4.5080 H   0  0  0  0  0  0  0  0  0  0  0  0
   -1.7796    1.1158    6.2211 H   0  0  0  0  0  0  0  0  0  0  0  0
   -2.1937   -0.3503    5.3653 H   0  0  0  0  0  0  0  0  0  0  0  0
    1.1387    1.7722    2.7484 H   0  0  0  0  0  0  0  0  0  0  0  0
   -1.4648    2.5236    2.1047 H   0  0  0  0  0  0  0  0  0  0  0  0
   -0.3137    4.5108    1.0409 H   0  0  0  0  0  0  0  0  0  0  0  0
    1.2078    3.7073    1.3717 H   0  0  0  0  0  0  0  0  0  0  0  0
   -0.7458    4.4370    3.3097 H   0  0  0  0  0  0  0  0  0  0  0  0
    1.0258    1.1770    0.0511 H   0  0  0  0  0  0  0  0  0  0  0  0
   -0.2844    1.7948   -2.3915 H   0  0  0  0  0  0  0  0  0  0  0  0
    1.9667    1.4504   -2.6496 H   0  0  0  0  0  0  0  0  0  0  0  0
    1.2656   -0.0993   -3.1866 H   0  0  0  0  0  0  0  0  0  0  0  0
    1.9319   -0.0480   -0.3854 H   0  0  0  0  0  0  0  0  0  0  0  0
    2.6456   -1.8932   -2.6033 H   0  0  0  0  0  0  0  0  0  0  0  0
    1.2595   -2.0299   -1.5481 H   0  0  0  0  0  0  0  0  0  0  0  0
    2.8728   -2.1894   -0.8963 H   0  0  0  0  0  0  0  0  0  0  0  0
    4.1110    0.1589   -2.4341 H   0  0  0  0  0  0  0  0  0  0  0  0
    4.3366   -0.2056   -0.7401 H   0  0  0  0  0  0  0  0  0  0  0  0
    3.7331    1.3612   -1.2238 H   0  0  0  0  0  0  0  0  0  0  0  0
   -0.8882   -0.6220   -0.0996 H   0  0  0  0  0  0  0  0  0  0  0  0
   -2.6080   -2.0603   -2.0110 H   0  0  0  0  0  0  0  0  0  0  0  0
   -1.0798   -3.4307   -0.7463 H   0  0  0  0  0  0  0  0  0  0  0  0
   -2.8004   -3.7361   -0.3173 H   0  0  0  0  0  0  0  0  0  0  0  0
   -1.4032   -1.9101    1.4324 H   0  0  0  0  0  0  0  0  0  0  0  0
   -3.1419   -4.3193    1.8761 H   0  0  0  0  0  0  0  0  0  0  0  0
   -3.6912   -2.6616    1.8166 H   0  0  0  0  0  0  0  0  0  0  0  0
   -2.6352   -3.1863    3.1060 H   0  0  0  0  0  0  0  0  0  0  0  0
   -0.7577   -4.8457    1.3602 H   0  0  0  0  0  0  0  0  0  0  0  0
   -0.2666   -3.7303    2.6124 H   0  0  0  0  0  0  0  0  0  0  0  0
    0.3583   -3.5530    0.9903 H   0  0  0  0  0  0  0  0  0  0  0  0
   -2.6889    0.1177    0.5944 H   0  0  0  0  0  0  0  0  0  0  0  0
   -5.5141   -0.1773    1.1175 H   0  0  0  0  0  0  0  0  0  0  0  0
   -4.6886    2.2108    2.2498 H   0  0  0  0  0  0  0  0  0  0  0  0
   -3.2414    1.1771    2.2974 H   0  0  0  0  0  0  0  0  0  0  0  0
   -4.2775    0.8594    4.3434 H   0  0  0  0  0  0  0  0  0  0  0  0
   -4.6955   -0.5459    3.3508 H   0  0  0  0  0  0  0  0  0  0  0  0
   -6.7064   -1.2034    3.6737 H   0  0  0  0  0  0  0  0  0  0  0  0
   -8.0487   -0.1931    3.9658 H   0  0  0  0  0  0  0  0  0  0  0  0
   -3.3158    2.0267   -0.5087 H   0  0  0  0  0  0  0  0  0  0  0  0
   -3.5288    3.8436   -1.7854 H   0  0  0  0  0  0  0  0  0  0  0  0
   -4.9396    3.6340   -3.7320 H   0  0  0  0  0  0  0  0  0  0  0  0
   -4.0747    2.1223   -3.3498 H   0  0  0  0  0  0  0  0  0  0  0  0
   -6.5983    2.0640   -2.1254 H   0  0  0  0  0  0  0  0  0  0  0  0
   -6.7918    2.4640   -3.8230 H   0  0  0  0  0  0  0  0  0  0  0  0
   -5.3654    0.5688   -4.3950 H   0  0  0  0  0  0  0  0  0  0  0  0
   -5.3058    0.1446   -2.6920 H   0  0  0  0  0  0  0  0  0  0  0  0
   -7.8600    0.2861   -4.1284 H   0  0  0  0  0  0  0  0  0  0  0  0
   -5.5956   -1.4261   -2.1264 H   0  0  0  0  0  0  0  0  0  0  0  0
   -6.6346   -2.7553   -1.8783 H   0  0  0  0  0  0  0  0  0  0  0  0
   -9.2122   -1.4754   -3.8130 H   0  0  0  0  0  0  0  0  0  0  0  0
   -8.7025   -2.7822   -2.8433 H   0  0  0  0  0  0  0  0  0  0  0  0
   -8.2636   -0.9933   -3.5187 H   0  0  0  0  0  0  0  0  0  0  0  0
  1  2  1  0  0  0  0
  1 64  1  0  0  0  0
  1 65  1  0  0  0  0
  1 66  1  0  0  0  0
  1 67  1  0  0  0  0
  2 68  1  1  0  0  0
  3  2  1  0  0  0  0
  3 13  1  0  0  0  0
  4  3  2  0  0  0  0
  5  2  1  0  0  0  0
  5  6  1  0  0  0  0
  5 69  1  0  0  0  0
  5 70  1  0  0  0  0
  6  7  1  0  0  0  0
  7  9  2  0  0  0  0
  7 71  1  0  0  0  0
  8  6  2  0  0  0  0
  8 10  1  0  0  0  0
  8 72  1  0  0  0  0
  9 73  1  0  0  0  0
 10 11  2  0  0  0  0
 10 74  1  0  0  0  0
 11  9  1  0  0  0  0
 11 12  1  0  0  0  0
 12 75  1  0  0  0  0
 13 76  1  0  0  0  0
 14 13  1  0  0  0  0
 14 17  1  0  0  0  0
 14 77  1  6  0  0  0
 15 14  1  0  0  0  0
 16 15  2  0  0  0  0
 17 18  1  0  0  0  0
 17 78  1  0  0  0  0
 17 79  1  0  0  0  0
 18 19  1  0  0  0  0
 18 80  1  0  0  0  0
 19 81  1  0  0  0  0
 19 82  1  0  0  0  0
 19 83  1  0  0  0  0
 20 18  1  0  0  0  0
 20 84  1  0  0  0  0
 20 85  1  0  0  0  0
 20 86  1  0  0  0  0
 21 15  1  0  0  0  0
 21 87  1  0  0  0  0
 22 25  1  0  0  0  0
 22 21  1  0  0  0  0
 22 88  1  1  0  0  0
 23 22  1  0  0  0  0
 24 23  2  0  0  0  0
 25 26  1  0  0  0  0
 25 89  1  0  0  0  0
 25 90  1  0  0  0  0
 26 91  1  0  0  0  0
 27 23  1  0  0  0  0
 27 92  1  0  0  0  0
 28 27  1  0  0  0  0
 28 93  1  6  0  0  0
 29 28  1  0  0  0  0
 29 35  1  0  0  0  0
 30 29  2  0  0  0  0
 31 28  1  0  0  0  0
 31 32  1  0  0  0  0
 31 94  1  0  0  0  0
 31 95  1  0  0  0  0
 32 96  1  0  0  0  0
 33 32  1  0  0  0  0
 33 97  1  0  0  0  0
 33 98  1  0  0  0  0
 33 99  1  0  0  0  0
 34 32  1  0  0  0  0
 34100  1  0  0  0  0
 34101  1  0  0  0  0
 34102  1  0  0  0  0
 35103  1  0  0  0  0
 36 35  1  0  0  0  0
 36 37  1  0  0  0  0
 36 39  1  0  0  0  0
 36104  1  6  0  0  0
 37 43  1  0  0  0  0
 38 37  2  0  0  0  0
 39 40  1  0  0  0  0
 39105  1  0  0  0  0
 39106  1  0  0  0  0
 40 42  1  0  0  0  0
 40 41  1  0  0  0  0
 40107  1  0  0  0  0
 41108  1  0  0  0  0
 41109  1  0  0  0  0
 41110  1  0  0  0  0
 42111  1  0  0  0  0
 42112  1  0  0  0  0
 42113  1  0  0  0  0
 43 44  1  0  0  0  0
 43114  1  0  0  0  0
 44 47  1  0  0  0  0
 44115  1  1  0  0  0
 45 44  1  0  0  0  0
 46 45  2  0  0  0  0
 47 48  1  0  0  0  0
 47116  1  0  0  0  0
 47117  1  0  0  0  0
 48 49  1  0  0  0  0
 48118  1  0  0  0  0
 48119  1  0  0  0  0
 49 51  1  0  0  0  0
 49 50  2  0  0  0  0
 51120  1  0  0  0  0
 51121  1  0  0  0  0
 52 45  1  0  0  0  0
 52122  1  0  0  0  0
 53 54  1  0  0  0  0
 53 52  1  0  0  0  0
 53123  1  6  0  0  0
 54 63  2  0  0  0  0
 54 55  1  0  0  0  0
 56 53  1  0  0  0  0
 56124  1  0  0  0  0
 56125  1  0  0  0  0
 57 56  1  0  0  0  0
 57126  1  0  0  0  0
 57127  1  0  0  0  0
 58 57  1  0  0  0  0
 58128  1  0  0  0  0
 58129  1  0  0  0  0
 59 58  1  0  0  0  0
 59 60  1  0  0  0  0
 59130  1  0  0  0  0
 60 61  1  0  0  0  0
 61131  1  0  0  0  0
 61132  1  0  0  0  0
 62 60  2  0  0  0  0
 62133  1  0  0  0  0
 62134  1  0  0  0  0
 62135  1  0  0  0  0
M  CHG  3   1   1  55  -1  62   1
M  END
>  <REMARK>
   1 CREATED WITH OPENMM 8.5.2, 2026-07-29

$$$$
