
     RDKit          3D

133134  0  0  0  0  0  0  0  0999 V2000
    7.2142   -1.0619    2.8095 N   0  0  0  0  0  0  0  0  0  0  0  0
    8.3713   -0.5237    2.0561 C   0  0  1  0  0  0  0  0  0  0  0  0
    9.4322   -1.6267    1.9200 C   0  0  0  0  0  0  0  0  0  0  0  0
   10.8669   -1.1860    1.5501 C   0  0  0  0  0  0  0  0  0  0  0  0
   11.0119   -0.6984    0.1108 C   0  0  0  0  0  0  0  0  0  0  0  0
   11.4348   -0.1503    2.5223 C   0  0  0  0  0  0  0  0  0  0  0  0
    7.8836    0.0373    0.7016 C   0  0  0  0  0  0  0  0  0  0  0  0
    8.0931    1.2012    0.3653 O   0  0  0  0  0  0  0  0  0  0  0  0
    7.1898   -0.8567   -0.0908 N   0  0  0  0  0  0  0  0  0  0  0  0
    6.4876   -0.4106   -1.2937 C   0  0  1  0  0  0  0  0  0  0  0  0
    6.3745   -1.5291   -2.3485 C   0  0  0  0  0  0  0  0  0  0  0  0
    7.6780   -2.0827   -2.9559 C   0  0  0  0  0  0  0  0  0  0  0  0
    8.6832   -0.9955   -3.3232 C   0  0  0  0  0  0  0  0  0  0  0  0
    8.3210   -3.1540   -2.0764 C   0  0  0  0  0  0  0  0  0  0  0  0
    5.0432    0.0413   -0.9613 C   0  0  0  0  0  0  0  0  0  0  0  0
    4.3444    0.6194   -1.7880 O   0  0  0  0  0  0  0  0  0  0  0  0
    4.5685   -0.4018    0.2547 N   0  0  0  0  0  0  0  0  0  0  0  0
    3.2174   -0.1117    0.7542 C   0  0  1  0  0  0  0  0  0  0  0  0
    2.9811    1.3516    1.1132 C   0  0  0  0  0  0  0  0  0  0  0  0
    3.8340    1.8593    2.2378 C   0  0  0  0  0  0  0  0  0  0  0  0
    3.7321    3.0823    2.8664 C   0  0  0  0  0  0  0  0  0  0  0  0
    4.7636    3.1209    3.7610 N   0  0  0  0  0  0  0  0  0  0  0  0
    5.4446    1.9415    3.6494 C   0  0  0  0  0  0  0  0  0  0  0  0
    4.8973    1.1480    2.7571 N   0  0  0  0  0  0  0  0  0  0  0  0
    2.1757   -0.9024   -0.0841 C   0  0  0  0  0  0  0  0  0  0  0  0
    2.0774   -2.1202    0.1397 O   0  0  0  0  0  0  0  0  0  0  0  0
    1.4675   -0.3686   -1.1385 N   0  0  0  0  0  0  0  0  0  0  0  0
    0.9367   -1.2879   -2.1371 C   0  0  0  0  0  0  0  0  0  0  0  0
    0.3712   -0.4291   -3.2564 C   0  0  0  0  0  0  0  0  0  0  0  0
    1.0694    0.9110   -3.0857 C   0  0  0  0  0  0  0  0  0  0  0  0
    1.3484    1.0200   -1.5873 C   0  0  1  0  0  0  0  0  0  0  0  0
    0.2222    1.7445   -0.8101 C   0  0  0  0  0  0  0  0  0  0  0  0
    0.4075    2.8190   -0.2363 O   0  0  0  0  0  0  0  0  0  0  0  0
   -0.9994    1.1197   -0.8227 N   0  0  0  0  0  0  0  0  0  0  0  0
   -2.1550    1.5687   -0.0540 C   0  0  1  0  0  0  0  0  0  0  0  0
   -2.7645    2.8846   -0.5642 C   0  0  0  0  0  0  0  0  0  0  0  0
   -3.5093    2.8498   -1.9137 C   0  0  0  0  0  0  0  0  0  0  0  0
   -4.1246    4.2253   -2.1866 C   0  0  0  0  0  0  0  0  0  0  0  0
   -2.6254    2.4502   -3.0923 C   0  0  0  0  0  0  0  0  0  0  0  0
   -3.1466    0.3800   -0.0124 C   0  0  0  0  0  0  0  0  0  0  0  0
   -2.8939   -0.6899   -0.5725 O   0  0  0  0  0  0  0  0  0  0  0  0
   -4.2827    0.5654    0.7466 N   0  0  0  0  0  0  0  0  0  0  0  0
   -5.3184   -0.4654    0.7645 C   0  0  1  0  0  0  0  0  0  0  0  0
   -6.0137   -0.5684    2.1322 C   0  0  0  0  0  0  0  0  0  0  0  0
   -6.5529    0.7298    2.7483 C   0  0  0  0  0  0  0  0  0  0  0  0
   -7.7669    1.3117    2.0281 C   0  0  0  0  0  0  0  0  0  0  0  0
   -8.3042    2.4469    2.7695 N   0  0  0  0  0  0  0  0  0  0  0  0
   -9.1309    2.2629    3.8257 C   0  0  0  0  0  0  0  0  0  0  0  0
   -9.4274    1.1341    4.3534 N   0  0  0  0  0  0  0  0  0  0  0  0
   -9.6058    3.4404    4.2769 N   0  0  0  0  0  0  0  0  0  0  0  0
   -6.2998   -0.2584   -0.4104 C   0  0  0  0  0  0  0  0  0  0  0  0
   -6.3640    0.7927   -1.0461 O   0  0  0  0  0  0  0  0  0  0  0  0
   -7.1218   -1.3375   -0.6629 N   0  0  0  0  0  0  0  0  0  0  0  0
   -7.9814   -1.3376   -1.8482 C   0  0  1  0  0  0  0  0  0  0  0  0
   -8.4894   -2.7569   -2.1700 C   0  0  0  0  0  0  0  0  0  0  0  0
   -9.6012   -3.3309   -1.2611 C   0  0  0  0  0  0  0  0  0  0  0  0
  -10.0275   -4.7036   -1.7962 C   0  0  0  0  0  0  0  0  0  0  0  0
   -9.1935   -3.4633    0.2063 C   0  0  0  0  0  0  0  0  0  0  0  0
   -9.1701   -0.3634   -1.7984 C   0  0  0  0  0  0  0  0  0  0  0  0
   -9.9152   -0.1091   -2.7329 O   0  0  0  0  0  0  0  0  0  0  0  0
   -9.4127    0.1683   -0.5845 O   0  0  0  0  0  0  0  0  0  0  0  0
    6.4716   -0.3513    2.8536 H   0  0  0  0  0  0  0  0  0  0  0  0
    6.8193   -1.8845    2.3664 H   0  0  0  0  0  0  0  0  0  0  0  0
    8.7576    0.3157    2.6411 H   0  0  0  0  0  0  0  0  0  0  0  0
    9.1026   -2.3874    1.1996 H   0  0  0  0  0  0  0  0  0  0  0  0
    9.5103   -2.1504    2.8852 H   0  0  0  0  0  0  0  0  0  0  0  0
   11.4932   -2.0837    1.6388 H   0  0  0  0  0  0  0  0  0  0  0  0
   10.6064   -1.4300   -0.5930 H   0  0  0  0  0  0  0  0  0  0  0  0
   10.5122    0.2608   -0.0547 H   0  0  0  0  0  0  0  0  0  0  0  0
   12.0710   -0.5562   -0.1373 H   0  0  0  0  0  0  0  0  0  0  0  0
   11.2920   -0.4684    3.5599 H   0  0  0  0  0  0  0  0  0  0  0  0
   12.5098   -0.0221    2.3580 H   0  0  0  0  0  0  0  0  0  0  0  0
   10.9643    0.8301    2.3931 H   0  0  0  0  0  0  0  0  0  0  0  0
    6.9081   -1.7420    0.3083 H   0  0  0  0  0  0  0  0  0  0  0  0
    6.9972    0.4660   -1.7051 H   0  0  0  0  0  0  0  0  0  0  0  0
    5.7816   -2.3591   -1.9414 H   0  0  0  0  0  0  0  0  0  0  0  0
    5.7776   -1.1365   -3.1839 H   0  0  0  0  0  0  0  0  0  0  0  0
    7.3896   -2.5877   -3.8891 H   0  0  0  0  0  0  0  0  0  0  0  0
    8.2173   -0.2336   -3.9564 H   0  0  0  0  0  0  0  0  0  0  0  0
    9.0921   -0.5021   -2.4380 H   0  0  0  0  0  0  0  0  0  0  0  0
    9.5237   -1.4227   -3.8819 H   0  0  0  0  0  0  0  0  0  0  0  0
    7.6000   -3.9405   -1.8282 H   0  0  0  0  0  0  0  0  0  0  0  0
    9.1578   -3.6293   -2.6014 H   0  0  0  0  0  0  0  0  0  0  0  0
    8.7095   -2.7421   -1.1438 H   0  0  0  0  0  0  0  0  0  0  0  0
    5.2689   -0.3964    0.9847 H   0  0  0  0  0  0  0  0  0  0  0  0
    3.1863   -0.6465    1.7180 H   0  0  0  0  0  0  0  0  0  0  0  0
    3.1989    2.0077    0.2647 H   0  0  0  0  0  0  0  0  0  0  0  0
    1.9309    1.4896    1.3953 H   0  0  0  0  0  0  0  0  0  0  0  0
    3.0419    3.9066    2.7403 H   0  0  0  0  0  0  0  0  0  0  0  0
    5.0053    3.8906    4.3666 H   0  0  0  0  0  0  0  0  0  0  0  0
    6.3231    1.7278    4.2460 H   0  0  0  0  0  0  0  0  0  0  0  0
    0.1723   -1.9281   -1.6849 H   0  0  0  0  0  0  0  0  0  0  0  0
    1.7513   -1.9230   -2.4955 H   0  0  0  0  0  0  0  0  0  0  0  0
   -0.7121   -0.3184   -3.1441 H   0  0  0  0  0  0  0  0  0  0  0  0
    0.5468   -0.8700   -4.2416 H   0  0  0  0  0  0  0  0  0  0  0  0
    2.0202    0.8810   -3.6280 H   0  0  0  0  0  0  0  0  0  0  0  0
    0.4828    1.7416   -3.4848 H   0  0  0  0  0  0  0  0  0  0  0  0
    2.2603    1.5873   -1.4304 H   0  0  0  0  0  0  0  0  0  0  0  0
   -1.0090    0.1273   -1.0484 H   0  0  0  0  0  0  0  0  0  0  0  0
   -1.8009    1.7220    0.9747 H   0  0  0  0  0  0  0  0  0  0  0  0
   -3.4696    3.2441    0.1977 H   0  0  0  0  0  0  0  0  0  0  0  0
   -1.9814    3.6519   -0.6141 H   0  0  0  0  0  0  0  0  0  0  0  0
   -4.3316    2.1296   -1.8507 H   0  0  0  0  0  0  0  0  0  0  0  0
   -4.7969    4.5189   -1.3752 H   0  0  0  0  0  0  0  0  0  0  0  0
   -3.3511    4.9939   -2.2826 H   0  0  0  0  0  0  0  0  0  0  0  0
   -4.7074    4.2137   -3.1148 H   0  0  0  0  0  0  0  0  0  0  0  0
   -2.3558    1.3917   -3.0405 H   0  0  0  0  0  0  0  0  0  0  0  0
   -3.1528    2.5924   -4.0432 H   0  0  0  0  0  0  0  0  0  0  0  0
   -1.7080    3.0460   -3.1246 H   0  0  0  0  0  0  0  0  0  0  0  0
   -4.6117    1.5195    0.8346 H   0  0  0  0  0  0  0  0  0  0  0  0
   -4.8337   -1.4330    0.5808 H   0  0  0  0  0  0  0  0  0  0  0  0
   -6.8242   -1.3051    2.0864 H   0  0  0  0  0  0  0  0  0  0  0  0
   -5.2787   -0.9707    2.8424 H   0  0  0  0  0  0  0  0  0  0  0  0
   -6.8248    0.5036    3.7867 H   0  0  0  0  0  0  0  0  0  0  0  0
   -5.7608    1.4852    2.8131 H   0  0  0  0  0  0  0  0  0  0  0  0
   -8.5390    0.5503    1.8756 H   0  0  0  0  0  0  0  0  0  0  0  0
   -7.4676    1.6811    1.0447 H   0  0  0  0  0  0  0  0  0  0  0  0
   -8.6469    3.1715    2.1509 H   0  0  0  0  0  0  0  0  0  0  0  0
  -10.0823    1.2736    5.1221 H   0  0  0  0  0  0  0  0  0  0  0  0
   -8.9185    4.1823    4.2069 H   0  0  0  0  0  0  0  0  0  0  0  0
   -9.9875    3.4004    5.2124 H   0  0  0  0  0  0  0  0  0  0  0  0
   -6.7979   -2.2371   -0.3302 H   0  0  0  0  0  0  0  0  0  0  0  0
   -7.3476   -0.9988   -2.6805 H   0  0  0  0  0  0  0  0  0  0  0  0
   -7.6364   -3.4474   -2.1800 H   0  0  0  0  0  0  0  0  0  0  0  0
   -8.8778   -2.7424   -3.1969 H   0  0  0  0  0  0  0  0  0  0  0  0
  -10.4805   -2.6768   -1.3116 H   0  0  0  0  0  0  0  0  0  0  0  0
  -10.3840   -4.6270   -2.8293 H   0  0  0  0  0  0  0  0  0  0  0  0
  -10.8406   -5.1225   -1.1948 H   0  0  0  0  0  0  0  0  0  0  0  0
   -9.1919   -5.4128   -1.7765 H   0  0  0  0  0  0  0  0  0  0  0  0
   -8.2632   -4.0318    0.3109 H   0  0  0  0  0  0  0  0  0  0  0  0
   -9.0591   -2.4850    0.6740 H   0  0  0  0  0  0  0  0  0  0  0  0
   -9.9695   -3.9831    0.7790 H   0  0  0  0  0  0  0  0  0  0  0  0
  -10.1993    0.7356   -0.7257 H   0  0  0  0  0  0  0  0  0  0  0  0
  1  2  1  0
  2  3  1  0
  3  4  1  0
  4  5  1  0
  4  6  1  0
  2  7  1  0
  7  8  2  0
  7  9  1  0
  9 10  1  0
 10 11  1  0
 11 12  1  0
 12 13  1  0
 12 14  1  0
 10 15  1  0
 15 16  2  0
 15 17  1  0
 17 18  1  0
 18 19  1  0
 19 20  1  0
 20 21  2  0
 21 22  1  0
 22 23  1  0
 23 24  2  0
 18 25  1  0
 25 26  2  0
 25 27  1  0
 27 28  1  0
 28 29  1  0
 29 30  1  0
 30 31  1  0
 31 32  1  0
 32 33  2  0
 32 34  1  0
 34 35  1  0
 35 36  1  0
 36 37  1  0
 37 38  1  0
 37 39  1  0
 35 40  1  0
 40 41  2  0
 40 42  1  0
 42 43  1  0
 43 44  1  0
 44 45  1  0
 45 46  1  0
 46 47  1  0
 47 48  1  0
 48 49  2  3
 48 50  1  0
 43 51  1  0
 51 52  2  0
 51 53  1  0
 53 54  1  0
 54 55  1  0
 55 56  1  0
 56 57  1  0
 56 58  1  0
 54 59  1  0
 59 60  2  0
 59 61  1  0
 24 20  1  0
 31 27  1  0
  1 62  1  0
  1 63  1  0
  2 64  1  1
  3 65  1  0
  3 66  1  0
  4 67  1  0
  5 68  1  0
  5 69  1  0
  5 70  1  0
  6 71  1  0
  6 72  1  0
  6 73  1  0
  9 74  1  0
 10 75  1  6
 11 76  1  0
 11 77  1  0
 12 78  1  0
 13 79  1  0
 13 80  1  0
 13 81  1  0
 14 82  1  0
 14 83  1  0
 14 84  1  0
 17 85  1  0
 18 86  1  1
 19 87  1  0
 19 88  1  0
 21 89  1  0
 22 90  1  0
 23 91  1  0
 28 92  1  0
 28 93  1  0
 29 94  1  0
 29 95  1  0
 30 96  1  0
 30 97  1  0
 31 98  1  6
 34 99  1  0
 35100  1  1
 36101  1  0
 36102  1  0
 37103  1  0
 38104  1  0
 38105  1  0
 38106  1  0
 39107  1  0
 39108  1  0
 39109  1  0
 42110  1  0
 43111  1  6
 44112  1  0
 44113  1  0
 45114  1  0
 45115  1  0
 46116  1  0
 46117  1  0
 47118  1  0
 49119  1  0
 50120  1  0
 50121  1  0
 53122  1  0
 54123  1  6
 55124  1  0
 55125  1  0
 56126  1  0
 57127  1  0
 57128  1  0
 57129  1  0
 58130  1  0
 58131  1  0
 58132  1  0
 61133  1  0
M  END
