@<TRIPOS>MOLECULE
/mnt/hpc/home/25menglei/25wenshaohua/MD/yzy/docking/dc/peptides/pdb/alllhrc.pdb
 124 124 0 0 0
SMALL
GASTEIGER

@<TRIPOS>ATOM
      1 N          -3.6290   -5.2170    1.7070 N.3     1  ALA1       -0.0185
      2 CA         -4.2300   -3.9010    1.9120 C.3     1  ALA1        0.0500
      3 C          -3.1690   -2.8160    2.0100 C.2     1  ALA1        0.2642
      4 O          -3.0590   -1.9500    1.1350 O.2     1  ALA1       -0.2695
      5 CB         -5.0840   -3.9120    3.1710 C.3     1  ALA1       -0.0104
      6 N          -2.3730   -2.8410    3.0600 N.am    2  LEU2       -0.2993
      7 CA         -1.3350   -1.8440    3.2850 C.3     2  LEU2        0.0998
      8 C          -0.3450   -1.8160    2.1330 C.2     2  LEU2        0.2340
      9 O           0.2090   -0.7750    1.8010 O.2     2  LEU2       -0.2738
     10 CB         -0.5940   -2.1330    4.5900 C.3     2  LEU2       -0.0236
     11 CG         -1.4430   -2.0030    5.8410 C.3     2  LEU2       -0.0446
     12 CD2        -0.6280   -2.4100    7.0630 C.3     2  LEU2       -0.0626
     13 CD1        -1.9510   -0.5820    6.0010 C.3     2  LEU2       -0.0626
     14 N          -0.1390   -2.9350    1.5180 N.am    3  LEU3       -0.3025
     15 CA          0.7610   -3.0560    0.3830 C.3     3  LEU3        0.0996
     16 C           0.3370   -2.1270   -0.7370 C.2     3  LEU3        0.2340
     17 O           1.1580   -1.4250   -1.3300 O.2     3  LEU3       -0.2738
     18 CB          0.7820   -4.4960   -0.1210 C.3     3  LEU3       -0.0236
     19 CG          1.2640   -5.5060    0.9060 C.3     3  LEU3       -0.0446
     20 CD1         1.1830   -6.9140    0.3250 C.3     3  LEU3       -0.0626
     21 CD2         2.6880   -5.2000    1.3410 C.3     3  LEU3       -0.0626
     22 N          -0.9440   -2.1040   -1.0340 N.am    4  LEU4       -0.3025
     23 CA         -1.4980   -1.2700   -2.0850 C.3     4  LEU4        0.0996
     24 C          -1.7270    0.1470   -1.6020 C.2     4  LEU4        0.2340
     25 O          -1.8950    1.0670   -2.4000 O.2     4  LEU4       -0.2738
     26 CB         -2.8110   -1.8560   -2.5800 C.3     4  LEU4       -0.0236
     27 CG         -2.6950   -3.2740   -3.1100 C.3     4  LEU4       -0.0446
     28 CD2        -4.0580   -3.7930   -3.5170 C.3     4  LEU4       -0.0626
     29 CD1        -1.7300   -3.3380   -4.2780 C.3     4  LEU4       -0.0626
     30 N          -1.7140    0.3160   -0.3100 N.am    5  HIS5       -0.3021
     31 CA         -1.9860    1.6180    0.2830 C.3     5  HIS5        0.1048
     32 C          -1.0070    2.6790   -0.1860 C.2     5  HIS5        0.2343
     33 O          -1.3220    3.8580   -0.2200 O.2     5  HIS5       -0.2738
     34 CB         -1.9360    1.5200    1.7970 C.3     5  HIS5        0.0160
     35 CG         -2.1740    2.8290    2.4730 C.ar    5  HIS5        0.0375
     36 ND1        -3.3280    3.5530    2.3250 N.ar    5  HIS5       -0.3481
     37 CD2        -1.3820    3.5640    3.3000 C.ar    5  HIS5        0.0485
     38 CE1        -3.2220    4.6680    3.0330 C.ar    5  HIS5        0.0935
     39 NE2        -2.0670    4.6970    3.6350 N.ar    5  HIS5       -0.2440
     40 N           0.1700    2.2750   -0.5590 N.am    6  ARG6       -0.3025
     41 CA          1.1880    3.2030   -1.0140 C.3     6  ARG6        0.0995
     42 C           0.8550    3.7870   -2.3750 C.2     6  ARG6        0.2339
     43 O           1.5930    4.6250   -2.8940 O.2     6  ARG6       -0.2738
     44 CB          2.5500    2.5210   -1.0780 C.3     6  ARG6       -0.0231
     45 CG          2.6270    1.4630   -2.1550 C.3     6  ARG6       -0.0201
     46 CD          4.0190    0.8690   -2.2320 C.3     6  ARG6        0.0645
     47 NE          4.1460   -0.0600   -3.3320 N.pl3   6  ARG6       -0.2811
     48 CZ          5.2890   -0.6510   -3.6870 C.cat   6  ARG6        0.3114
     49 NH2         6.3920   -0.3910   -3.0160 N.pl3   6  ARG6       -0.2942
     50 NH1         5.3130   -1.4910   -4.7100 N.pl3   6  ARG6       -0.3944
     51 N          -0.2400    3.3300   -2.9500 N.am    7  CYS7       -0.3050
     52 CA         -0.6680    3.7860   -4.2630 C.3     7  CYS7        0.0713
     53 C          -1.8420    4.7350   -4.1430 C.2     7  CYS7        0.0627
     54 O          -1.9070    5.7000   -4.9040 O.co2   7  CYS7       -0.5479
     55 CB         -1.0620    2.6020   -5.1500 C.3     7  CYS7        0.0144
     56 SG          0.3120    1.4890   -5.4880 S.3     7  CYS7       -0.1761
     57 OXT        -2.6850    4.5300   -3.2910 O.co2   7  CYS7       -0.5479
     58 H          -3.0583   -5.2022    0.8618 H       1  ALA1        0.2094
     59 H          -4.3657   -5.9155    1.6076 H       1  ALA1        0.2094
     60 H          -3.0435   -5.4520    2.5085 H       1  ALA1        0.2094
     61 H          -3.6861   -5.9499    0.9998 H       1  ALA1        0.2094
     62 H          -4.8468   -3.6821    1.0655 H       1  ALA1        0.0974
     63 H          -4.4679   -4.1308    4.0180 H       1  ALA1        0.0290
     64 H          -5.8439   -4.6598    3.0800 H       1  ALA1        0.0290
     65 H          -5.5408   -2.9531    3.3005 H       1  ALA1        0.0290
     66 H          -2.4845   -3.5633    3.7196 H       2  LEU2        0.1496
     67 H          -1.8094   -0.8872    3.3508 H       2  LEU2        0.0595
     68 H           0.2233   -1.4469    4.6686 H       2  LEU2        0.0290
     69 H          -0.2810   -3.1550    4.5409 H       2  LEU2        0.0290
     70 H          -2.2882   -2.6526    5.7489 H       2  LEU2        0.0296
     71 H           0.2185   -1.7626    7.1589 H       2  LEU2        0.0232
     72 H          -0.2936   -3.4199    6.9485 H       2  LEU2        0.0232
     73 H          -1.2368   -2.3332    7.9395 H       2  LEU2        0.0232
     74 H          -1.1200    0.0854    6.0950 H       2  LEU2        0.0232
     75 H          -2.5609   -0.5179    6.8778 H       2  LEU2        0.0232
     76 H          -2.5303   -0.3116    5.1430 H       2  LEU2        0.0232
     77 H          -0.6120   -3.7393    1.8321 H       3  LEU3        0.1495
     78 H           1.7442   -2.7810    0.7034 H       3  LEU3        0.0594
     79 H           1.4306   -4.5451   -0.9706 H       3  LEU3        0.0290
     80 H          -0.2290   -4.7548   -0.3571 H       3  LEU3        0.0290
     81 H           0.6316   -5.4425    1.7668 H       3  LEU3        0.0296
     82 H           1.8144   -6.9813   -0.5363 H       3  LEU3        0.0232
     83 H           0.1726   -7.1263    0.0440 H       3  LEU3        0.0232
     84 H           1.5052   -7.6221    1.0597 H       3  LEU3        0.0232
     85 H           3.3398   -5.2578    0.4944 H       3  LEU3        0.0232
     86 H           2.9966   -5.9118    2.0779 H       3  LEU3        0.0232
     87 H           2.7300   -4.2150    1.7569 H       3  LEU3        0.0232
     88 H          -1.5555   -2.6791   -0.5197 H       4  LEU4        0.1495
     89 H          -0.7903   -1.2429   -2.8871 H       4  LEU4        0.0594
     90 H          -3.5066   -1.8568   -1.7669 H       4  LEU4        0.0290
     91 H          -3.1329   -1.2458   -3.3979 H       4  LEU4        0.0290
     92 H          -2.3098   -3.8956   -2.3289 H       4  LEU4        0.0296
     93 H          -4.4546   -3.1792   -4.2986 H       4  LEU4        0.0232
     94 H          -4.7162   -3.7663   -2.6738 H       4  LEU4        0.0232
     95 H          -3.9664   -4.8002   -3.8662 H       4  LEU4        0.0232
     96 H          -2.0932   -2.7231   -5.0748 H       4  LEU4        0.0232
     97 H          -1.6472   -4.3494   -4.6173 H       4  LEU4        0.0232
     98 H          -0.7687   -2.9867   -3.9661 H       4  LEU4        0.0232
     99 H          -1.5168   -0.4503    0.2758 H       5  HIS5        0.1495
    100 H          -2.9644    1.9118   -0.0352 H       5  HIS5        0.0598
    101 H          -0.9707    1.1584    2.0838 H       5  HIS5        0.0351
    102 H          -2.7174    0.8553    2.1012 H       5  HIS5        0.0351
    103 H          -4.1062    3.2887    1.7829 H       5  HIS5        0.1665
    104 H          -0.4333    3.3106    3.6174 H       5  HIS5        0.0848
    105 H          -3.9446    5.4019    3.0977 H       5  HIS5        0.1027
    106 H           0.3767    1.3128   -0.5322 H       6  ARG6        0.1495
    107 H           1.2195    4.0020   -0.3030 H       6  ARG6        0.0594
    108 H           3.2949    3.2635   -1.2747 H       6  ARG6        0.0289
    109 H           2.7109    2.0354   -0.1382 H       6  ARG6        0.0289
    110 H           1.9263    0.6855   -1.9328 H       6  ARG6        0.0296
    111 H           2.3966    1.9165   -3.0964 H       6  ARG6        0.0296
    112 H           4.7266    1.6607   -2.3638 H       6  ARG6        0.0655
    113 H           4.2037    0.3355   -1.3231 H       6  ARG6        0.0655
    114 H           3.3375   -0.2704   -3.8529 H       6  ARG6        0.2577
    115 H           7.2381   -0.8238   -3.2730 H       6  ARG6        0.2545
    116 H           6.3704    0.2361   -2.2574 H       6  ARG6        0.2545
    117 H           4.4863   -1.6827   -5.2090 H       6  ARG6        0.2155
    118 H           6.1576   -1.9240   -4.9717 H       6  ARG6        0.2155
    119 H           4.9264   -2.3783   -4.5296 H       6  ARG6        0.2155
    120 H          -0.7841    2.6601   -2.4764 H       7  CYS7        0.1494
    121 H           0.1560    4.2997   -4.7124 H       7  CYS7        0.0568
    122 H          -1.8352    2.0497   -4.6580 H       7  CYS7        0.0396
    123 H          -1.3902    2.9996   -6.0876 H       7  CYS7        0.0396
    124 H           0.7632    0.9580   -4.3200 H       7  CYS7        0.1017
@<TRIPOS>UNITY_ATOM_ATTR
1 1
charge 1
50 1
charge 1
57 1
charge -1
@<TRIPOS>BOND
     1    56    55    1
     2    55    52    1
     3    54    53   ar
     4    50    48    2
     5    29    27    1
     6    52    53    1
     7    52    51    1
     8    53    57   ar
     9    48    47    1
    10    48    49    1
    11    28    27    1
    12    47    46    1
    13    27    26    1
    14    51    42   am
    15    43    42    2
    16    26    23    1
    17    25    24    2
    18    42    41    1
    19    46    45    1
    20    45    44    1
    21    23    24    1
    22    23    22    1
    23    24    30   am
    24    17    16    2
    25    44    41    1
    26    22    16   am
    27    41    40    1
    28    16    15    1
    29    40    32   am
    30    30    31    1
    31    33    32    2
    32    32    31    1
    33    18    15    1
    34    18    19    1
    35    31    34    1
    36    20    19    1
    37    15    14    1
    38    19    21    1
    39     4     3    2
    40    14     8   am
    41     1     2    1
    42    34    35    1
    43     9     8    2
    44     2     3    1
    45     2     5    1
    46     3     6   am
    47     8     7    1
    48    36    35   ar
    49    36    38   ar
    50    35    37   ar
    51    38    39   ar
    52     6     7    1
    53     7    10    1
    54    37    39   ar
    55    10    11    1
    56    11    13    1
    57    11    12    1
    58     1    58    1
    59     1    59    1
    60     1    60    1
    61     1    61    1
    62     2    62    1
    63     5    63    1
    64     5    64    1
    65     5    65    1
    66     6    66    1
    67     7    67    1
    68    10    68    1
    69    10    69    1
    70    11    70    1
    71    12    71    1
    72    12    72    1
    73    12    73    1
    74    13    74    1
    75    13    75    1
    76    13    76    1
    77    14    77    1
    78    15    78    1
    79    18    79    1
    80    18    80    1
    81    19    81    1
    82    20    82    1
    83    20    83    1
    84    20    84    1
    85    21    85    1
    86    21    86    1
    87    21    87    1
    88    22    88    1
    89    23    89    1
    90    26    90    1
    91    26    91    1
    92    27    92    1
    93    28    93    1
    94    28    94    1
    95    28    95    1
    96    29    96    1
    97    29    97    1
    98    29    98    1
    99    30    99    1
   100    31   100    1
   101    34   101    1
   102    34   102    1
   103    36   103    1
   104    37   104    1
   105    38   105    1
   106    40   106    1
   107    41   107    1
   108    44   108    1
   109    44   109    1
   110    45   110    1
   111    45   111    1
   112    46   112    1
   113    46   113    1
   114    47   114    1
   115    49   115    1
   116    49   116    1
   117    50   117    1
   118    50   118    1
   119    50   119    1
   120    51   120    1
   121    52   121    1
   122    55   122    1
   123    55   123    1
   124    56   124    1
