@<TRIPOS>MOLECULE
/mnt/hpc/home/25menglei/25wenshaohua/MD/yzy/docking/dc/peptides/pdb/fclhlqlr.pdb
 153 154 0 0 0
SMALL
GASTEIGER

@<TRIPOS>ATOM
      1 N          -3.5240    1.3010    7.9150 N.3     1  PHE1       -0.0180
      2 CA         -2.1780    0.7630    8.1950 C.3     1  PHE1        0.0569
      3 C          -1.1380    1.1220    7.1310 C.2     1  PHE1        0.2648
      4 O           0.0300    0.7460    7.2600 O.2     1  PHE1       -0.2694
      5 CB         -2.2330   -0.7420    8.3930 C.3     1  PHE1        0.0267
      6 CG         -3.1030   -1.4320    7.3880 C.ar    1  PHE1       -0.0414
      7 CD1        -2.6300   -1.7010    6.1160 C.ar    1  PHE1       -0.0584
      8 CD2        -4.4010   -1.7790    7.7180 C.ar    1  PHE1       -0.0584
      9 CE1        -3.4400   -2.3160    5.1940 C.ar    1  PHE1       -0.0615
     10 CE2        -5.2200   -2.3930    6.7880 C.ar    1  PHE1       -0.0615
     11 CZ         -4.7330   -2.6590    5.5260 C.ar    1  PHE1       -0.0617
     12 N          -1.5540    1.8610    6.1040 N.am    2  CYS2       -0.2985
     13 CA         -0.6640    2.3880    5.0580 C.3     2  CYS2        0.1083
     14 C           0.1860    1.3290    4.3500 C.2     2  CYS2        0.2347
     15 O           1.4060    1.4410    4.3010 O.2     2  CYS2       -0.2737
     16 CB          0.2070    3.4820    5.6610 C.3     2  CYS2        0.0177
     17 SG         -0.6710    4.4090    6.9390 S.3     2  CYS2       -0.1759
     18 N          -0.4340    0.3420    3.7720 N.am    3  LEU3       -0.3024
     19 CA          0.2870   -0.6780    3.0080 C.3     3  LEU3        0.0996
     20 C           0.5720   -0.1910    1.5780 C.2     3  LEU3        0.2340
     21 O           1.4040   -0.7550    0.8760 O.2     3  LEU3       -0.2738
     22 CB         -0.4910   -1.9980    3.0090 C.3     3  LEU3       -0.0236
     23 CG         -1.8990   -1.9670    2.4010 C.3     3  LEU3       -0.0446
     24 CD1        -1.8780   -1.7220    0.8990 C.3     3  LEU3       -0.0626
     25 CD2        -2.5890   -3.2850    2.6820 C.3     3  LEU3       -0.0626
     26 N          -0.1040    0.8750    1.1680 N.am    4  HIS4       -0.3024
     27 CA          0.0180    1.4500   -0.1740 C.3     4  HIS4        0.1011
     28 C           1.3240    2.2230   -0.3400 C.2     4  HIS4        0.2340
     29 O           1.8870    2.2630   -1.4310 O.2     4  HIS4       -0.2738
     30 CB         -1.1800    2.3690   -0.4660 C.3     4  HIS4       -0.0058
     31 CG         -2.3960    2.0810    0.3580 C.3     4  HIS4        0.0430
     32 ND1        -3.0280    3.0320    1.1220 N.pl3   4  HIS4       -0.3306
     33 CD2        -3.0830    0.9240    0.5290 C.3     4  HIS4        0.0595
     34 CE1        -4.0610    2.4570    1.7260 C.2     4  HIS4        0.0761
     35 NE2        -4.1130    1.1780    1.3990 N.2     4  HIS4       -0.2749
     36 N           1.7770    2.8100    0.7210 N.am    5  LEU5       -0.3025
     37 CA          3.0130    3.5890    0.7050 C.3     5  LEU5        0.0996
     38 C           4.2210    2.7320    0.3330 C.2     5  LEU5        0.2340
     39 O           5.1570    3.2080   -0.2980 O.2     5  LEU5       -0.2738
     40 CB          3.2210    4.2440    2.0770 C.3     5  LEU5       -0.0236
     41 CG          2.1520    5.2720    2.4680 C.3     5  LEU5       -0.0446
     42 CD2         2.2910    5.6440    3.9330 C.3     5  LEU5       -0.0626
     43 CD1         2.2670    6.5190    1.6050 C.3     5  LEU5       -0.0626
     44 N           4.2110    1.5200    0.7250 N.am    6  GLN6       -0.3025
     45 CA          5.2800    0.5730    0.4090 C.3     6  GLN6        0.0999
     46 C           5.3190    0.2560   -1.0850 C.2     6  GLN6        0.2340
     47 O           6.3960    0.0320   -1.6450 O.2     6  GLN6       -0.2738
     48 CB          5.0910   -0.7110    1.2190 C.3     6  GLN6       -0.0177
     49 CG          5.2810   -0.5110    2.7050 C.3     6  GLN6        0.0259
     50 CD          5.0980   -1.7990    3.4690 C.2     6  GLN6        0.2106
     51 OE1         4.0070   -2.1320    3.8850 O.2     6  GLN6       -0.2760
     52 NE2         6.1810   -2.5460    3.6450 N.am    6  GLN6       -0.3293
     53 N           4.1680    0.2810   -1.7100 N.am    7  LEU7       -0.3025
     54 CA          4.0450    0.0240   -3.1400 C.3     7  LEU7        0.0996
     55 C           4.5390    1.2020   -3.9740 C.2     7  LEU7        0.2339
     56 O           5.3530    1.0230   -4.8760 O.2     7  LEU7       -0.2738
     57 CB          2.5790   -0.2910   -3.4590 C.3     7  LEU7       -0.0236
     58 CG          2.3660   -1.0190   -4.7630 C.3     7  LEU7       -0.0446
     59 CD2         2.4780   -2.5170   -4.5460 C.3     7  LEU7       -0.0626
     60 CD1         1.0170   -0.6920   -5.3460 C.3     7  LEU7       -0.0626
     61 N           4.0030    2.3930   -3.6800 N.am    8  ARG8       -0.3058
     62 CA          4.3380    3.6440   -4.3680 C.3     8  ARG8        0.0627
     63 C           4.0570    3.5990   -5.8790 C.2     8  ARG8        0.0619
     64 OXT         3.7770    4.6530   -6.4530 O.co2   8  ARG8       -0.5479
     65 CB          5.7950    4.0190   -4.1230 C.3     8  ARG8       -0.0264
     66 CG          6.0270    4.5080   -2.7200 C.3     8  ARG8       -0.0202
     67 CD          7.4430    4.9890   -2.5280 C.3     8  ARG8        0.0645
     68 NE          7.6170    6.2790   -3.1780 N.pl3   8  ARG8       -0.2811
     69 CZ          8.7340    6.9900   -3.1090 C.cat   8  ARG8        0.3114
     70 NH2         9.7710    6.5490   -2.4230 N.pl3   8  ARG8       -0.2942
     71 NH1         8.8070    8.1420   -3.7320 N.pl3   8  ARG8       -0.3944
     72 O           4.1180    2.5500   -6.4680 O.co2   8  ARG8       -0.5479
     73 H          -3.4662    2.3111    7.7853 H       1  PHE1        0.2094
     74 H          -4.1428    1.0937    8.6989 H       1  PHE1        0.2094
     75 H          -3.8929    0.8699    7.0674 H       1  PHE1        0.2094
     76 H          -2.9143    1.3739    7.1005 H       1  PHE1        0.2094
     77 H          -1.8558    1.2333    9.1005 H       1  PHE1        0.0980
     78 H          -1.2405   -1.1334    8.3110 H       1  PHE1        0.0374
     79 H          -2.6545   -0.9229    9.3597 H       1  PHE1        0.0374
     80 H          -1.6654   -1.4385    5.8596 H       1  PHE1        0.0620
     81 H          -4.7604   -1.5783    8.6643 H       1  PHE1        0.0620
     82 H          -3.0796   -2.5222    4.2492 H       1  PHE1        0.0618
     83 H          -6.1880   -2.6500    7.0368 H       1  PHE1        0.0618
     84 H          -5.3389   -3.1167    4.8272 H       1  PHE1        0.0618
     85 H          -2.5147    2.0669    6.0411 H       2  CYS2        0.1497
     86 H          -1.2892    2.7849    4.2857 H       2  CYS2        0.0603
     87 H           0.5027    4.1567    4.8849 H       2  CYS2        0.0397
     88 H           1.0592    3.0183    6.1122 H       2  CYS2        0.0397
     89 H          -1.7619    5.0109    6.3938 H       2  CYS2        0.1017
     90 H          -1.4134    0.2793    3.8503 H       3  LEU3        0.1495
     91 H           1.2308   -0.8540    3.4804 H       3  LEU3        0.0594
     92 H           0.0839   -2.7139    2.4596 H       3  LEU3        0.0290
     93 H          -0.6353   -2.2391    4.0414 H       3  LEU3        0.0290
     94 H          -2.4290   -1.1542    2.8520 H       3  LEU3        0.0296
     95 H          -1.3535   -2.5192    0.4149 H       3  LEU3        0.0232
     96 H          -1.3841   -0.7948    0.6957 H       3  LEU3        0.0232
     97 H          -2.8816   -1.6798    0.5304 H       3  LEU3        0.0232
     98 H          -2.0406   -4.0800    2.2214 H       3  LEU3        0.0232
     99 H          -3.5821   -3.2596    2.2844 H       3  LEU3        0.0232
    100 H          -2.6320   -3.4469    3.7388 H       3  LEU3        0.0232
    101 H          -0.7230    1.3040    1.8021 H       4  HIS4        0.1495
    102 H           0.0257    0.6419   -0.8753 H       4  HIS4        0.0595
    103 H          -1.4415    2.2601   -1.4978 H       4  HIS4        0.0306
    104 H          -0.8705    3.3624   -0.2165 H       4  HIS4        0.0306
    105 H          -1.5922    1.9161   -0.3287 H       4  HIS4        0.0516
    106 H          -2.7612    3.9759    1.2068 H       4  HIS4        0.1472
    107 H          -2.4381    0.1735    0.9362 H       4  HIS4        0.0527
    108 H          -3.4606    0.5692   -0.4072 H       4  HIS4        0.0527
    109 H          -4.7232    2.9366    2.3557 H       4  HIS4        0.0993
    110 H           1.2740    2.7292    1.5634 H       5  LEU5        0.1495
    111 H           2.9215    4.3463   -0.0454 H       5  LEU5        0.0594
    112 H           4.1704    4.7375    2.0697 H       5  LEU5        0.0290
    113 H           3.1598    3.4566    2.7989 H       5  LEU5        0.0290
    114 H           1.1896    4.8323    2.3090 H       5  LEU5        0.0296
    115 H           3.2518    6.0846    4.0995 H       5  LEU5        0.0232
    116 H           2.1925    4.7650    4.5351 H       5  LEU5        0.0232
    117 H           1.5267    6.3447    4.1971 H       5  LEU5        0.0232
    118 H           3.2261    6.9691    1.7546 H       5  LEU5        0.0232
    119 H           1.5004    7.2137    1.8782 H       5  LEU5        0.0232
    120 H           2.1553    6.2515    0.5750 H       5  LEU5        0.0232
    121 H           3.4496    1.2067    1.2648 H       6  GLN6        0.1495
    122 H           6.2146    1.0233    0.6710 H       6  GLN6        0.0595
    123 H           5.8021   -1.4349    0.8796 H       6  GLN6        0.0292
    124 H           4.0829   -1.0365    1.0683 H       6  GLN6        0.0292
    125 H           4.5647    0.2035    3.0532 H       6  GLN6        0.0359
    126 H           6.2797   -0.1642    2.8700 H       6  GLN6        0.0359
    127 H           7.0497   -2.2440    3.2936 H       6  GLN6        0.1449
    128 H           6.1156   -3.4020    4.1269 H       6  GLN6        0.1449
    129 H           3.3539    0.4812   -1.1938 H       7  LEU7        0.1495
    130 H           4.6620   -0.8124   -3.3943 H       7  LEU7        0.0594
    131 H           2.1880   -0.8980   -2.6694 H       7  LEU7        0.0290
    132 H           2.0779    0.6500   -3.5500 H       7  LEU7        0.0290
    133 H           3.1213   -0.7005   -5.4507 H       7  LEU7        0.0296
    134 H           1.7226   -2.8352   -3.8582 H       7  LEU7        0.0232
    135 H           3.4436   -2.7484   -4.1474 H       7  LEU7        0.0232
    136 H           2.3467   -3.0234   -5.4794 H       7  LEU7        0.0232
    137 H           0.2503   -1.0051   -4.6685 H       7  LEU7        0.0232
    138 H           0.8986   -1.2021   -6.2791 H       7  LEU7        0.0232
    139 H           0.9434    0.3636   -5.5047 H       7  LEU7        0.0232
    140 H           3.3397    2.4316   -2.9535 H       8  ARG8        0.1494
    141 H           3.6968    4.3931   -3.9526 H       8  ARG8        0.0560
    142 H           6.0715    4.7931   -4.8080 H       8  ARG8        0.0288
    143 H           6.3892    3.1409   -4.2675 H       8  ARG8        0.0288
    144 H           5.8366    3.7068   -2.0369 H       8  ARG8        0.0296
    145 H           5.3664    5.3298   -2.5380 H       8  ARG8        0.0296
    146 H           7.6460    5.0879   -1.4821 H       8  ARG8        0.0655
    147 H           8.1186    4.2811   -2.9607 H       8  ARG8        0.0655
    148 H           6.8644    6.6438   -3.6973 H       8  ARG8        0.2577
    149 H          10.5956    7.0850   -2.3783 H       8  ARG8        0.2545
    150 H           9.7203    5.6839   -1.9557 H       8  ARG8        0.2545
    151 H           8.0350    8.4741   -4.2448 H       8  ARG8        0.2155
    152 H           9.6338    8.6746   -3.6868 H       8  ARG8        0.2155
    153 H           9.6768    7.7227   -3.5399 H       8  ARG8        0.2155
@<TRIPOS>UNITY_ATOM_ATTR
1 1
charge 1
64 1
charge -1
71 1
charge 1
@<TRIPOS>BOND
     1    72    63   ar
     2    64    63   ar
     3    63    62    1
     4    60    58    1
     5    56    55    2
     6    58    59    1
     7    58    57    1
     8    62    65    1
     9    62    61    1
    10    65    66    1
    11    55    61   am
    12    55    54    1
    13    71    69    2
    14    57    54    1
    15    68    69    1
    16    68    67    1
    17    54    53    1
    18    69    70    1
    19    66    67    1
    20    53    46   am
    21    47    46    2
    22    29    28    2
    23    46    45    1
    24    30    27    1
    25    30    31    1
    26    28    27    1
    27    28    36   am
    28    39    38    2
    29    27    26    1
    30    38    37    1
    31    38    44   am
    32    31    33    1
    33    31    32    1
    34    45    44    1
    35    45    48    1
    36    33    35    1
    37    37    36    1
    38    37    40    1
    39    21    20    2
    40    24    23    1
    41    32    34    1
    42    26    20   am
    43    48    49    1
    44    35    34    2
    45    20    19    1
    46    43    41    1
    47    40    41    1
    48    23    25    1
    49    23    22    1
    50    41    42    1
    51    49    50    1
    52    19    22    1
    53    19    18    1
    54    50    52   am
    55    50    51    2
    56    18    14   am
    57    15    14    2
    58    14    13    1
    59    13    16    1
    60    13    12    1
    61     9    11   ar
    62     9     7   ar
    63    11    10   ar
    64    16    17    1
    65    12     3   am
    66     7     6   ar
    67    10     8   ar
    68     3     4    2
    69     3     2    1
    70     6     8   ar
    71     6     5    1
    72     1     2    1
    73     2     5    1
    74     1    73    1
    75     1    74    1
    76     1    75    1
    77     1    76    1
    78     2    77    1
    79     5    78    1
    80     5    79    1
    81     7    80    1
    82     8    81    1
    83     9    82    1
    84    10    83    1
    85    11    84    1
    86    12    85    1
    87    13    86    1
    88    16    87    1
    89    16    88    1
    90    17    89    1
    91    18    90    1
    92    19    91    1
    93    22    92    1
    94    22    93    1
    95    23    94    1
    96    24    95    1
    97    24    96    1
    98    24    97    1
    99    25    98    1
   100    25    99    1
   101    25   100    1
   102    26   101    1
   103    27   102    1
   104    30   103    1
   105    30   104    1
   106    31   105    1
   107    32   106    1
   108    33   107    1
   109    33   108    1
   110    34   109    1
   111    36   110    1
   112    37   111    1
   113    40   112    1
   114    40   113    1
   115    41   114    1
   116    42   115    1
   117    42   116    1
   118    42   117    1
   119    43   118    1
   120    43   119    1
   121    43   120    1
   122    44   121    1
   123    45   122    1
   124    48   123    1
   125    48   124    1
   126    49   125    1
   127    49   126    1
   128    52   127    1
   129    52   128    1
   130    53   129    1
   131    54   130    1
   132    57   131    1
   133    57   132    1
   134    58   133    1
   135    59   134    1
   136    59   135    1
   137    59   136    1
   138    60   137    1
   139    60   138    1
   140    60   139    1
   141    61   140    1
   142    62   141    1
   143    65   142    1
   144    65   143    1
   145    66   144    1
   146    66   145    1
   147    67   146    1
   148    67   147    1
   149    68   148    1
   150    70   149    1
   151    70   150    1
   152    71   151    1
   153    71   152    1
   154    71   153    1
