@<TRIPOS>MOLECULE
/mnt/hpc/home/25menglei/25wenshaohua/MD/yzy/docking/dc/peptides/pdb/fllhttr.pdb
 134 135 0 0 0
SMALL
GASTEIGER

@<TRIPOS>ATOM
      1 N           5.2260    5.2210    8.7930 N.3     1  PHE1       -0.0180
      2 CA          4.7540    3.8860    8.3750 C.3     1  PHE1        0.0569
      3 C           4.4570    3.8880    6.8710 C.2     1  PHE1        0.2648
      4 O           3.4240    4.4060    6.4390 O.2     1  PHE1       -0.2694
      5 CB          3.5200    3.4780    9.1910 C.3     1  PHE1        0.0267
      6 CG          3.1000    2.0490    8.9870 C.ar    1  PHE1       -0.0414
      7 CD2         3.7850    1.0190    9.6190 C.ar    1  PHE1       -0.0584
      8 CD1         2.0270    1.7480    8.1750 C.ar    1  PHE1       -0.0584
      9 CE2         3.4030   -0.2890    9.4370 C.ar    1  PHE1       -0.0615
     10 CE1         1.6350    0.4240    7.9860 C.ar    1  PHE1       -0.0615
     11 CZ          2.3270   -0.5860    8.6240 C.ar    1  PHE1       -0.0617
     12 N           5.3480    3.3760    6.0890 N.am    2  LEU2       -0.2993
     13 CA          5.2320    3.3650    4.6310 C.3     2  LEU2        0.0998
     14 C           4.7000    2.0210    4.1300 C.2     2  LEU2        0.2340
     15 O           5.4420    1.0430    4.0620 O.2     2  LEU2       -0.2738
     16 CB          6.5870    3.7070    3.9890 C.3     2  LEU2       -0.0236
     17 CG          6.5940    4.0200    2.4930 C.3     2  LEU2       -0.0446
     18 CD2         5.8150    5.2960    2.1570 C.3     2  LEU2       -0.0626
     19 CD1         8.0380    4.1510    2.0120 C.3     2  LEU2       -0.0626
     20 N           3.4620    1.9980    3.7840 N.am    3  LEU3       -0.3025
     21 CA          2.8150    0.8020    3.2480 C.3     3  LEU3        0.0996
     22 C           2.5350    0.9510    1.7530 C.2     3  LEU3        0.2340
     23 O           1.5490    1.5550    1.3410 O.2     3  LEU3       -0.2738
     24 CB          1.5440    0.4560    4.0420 C.3     3  LEU3       -0.0236
     25 CG          0.4650    1.5400    4.2190 C.3     3  LEU3       -0.0446
     26 CD1        -0.7130    1.3250    3.2520 C.3     3  LEU3       -0.0626
     27 CD2        -0.0490    1.5350    5.6470 C.3     3  LEU3       -0.0626
     28 N           3.4270    0.4350    0.9630 N.am    4  HIS4       -0.3024
     29 CA          3.2690    0.4490   -0.4830 C.3     4  HIS4        0.1011
     30 C           2.5670   -0.8270   -0.9490 C.2     4  HIS4        0.2341
     31 O           3.2000   -1.8090   -1.3250 O.2     4  HIS4       -0.2738
     32 CB          4.6260    0.6160   -1.1760 C.3     4  HIS4       -0.0058
     33 CG          4.9950    2.0520   -1.4330 C.3     4  HIS4        0.0430
     34 ND1         4.4020    2.8300   -2.4080 N.pl3   4  HIS4       -0.3306
     35 CD2         5.9310    2.8260   -0.8280 C.3     4  HIS4        0.0595
     36 CE1         4.9650    4.0280   -2.3860 C.2     4  HIS4        0.0761
     37 NE2         5.8970    4.0580   -1.4380 N.2     4  HIS4       -0.2749
     38 N           1.2720   -0.7630   -0.9000 N.am    5  THR5       -0.3003
     39 CA          0.4400   -1.8780   -1.3540 C.3     5  THR5        0.1252
     40 C           0.1620   -1.7690   -2.8460 C.2     5  THR5        0.2365
     41 O          -0.8880   -1.2700   -3.2670 O.2     5  THR5       -0.2737
     42 CB         -0.8740   -1.9680   -0.5550 C.3     5  THR5        0.0792
     43 OG1        -1.4690   -0.6790   -0.4240 O.3     5  THR5       -0.3897
     44 CG2        -0.6430   -2.5610    0.8210 C.3     5  THR5       -0.0367
     45 N           1.0830   -2.2070   -3.6060 N.am    6  THR6       -0.3003
     46 CA          1.0320   -2.1480   -5.0600 C.3     6  THR6        0.1252
     47 C           0.5000   -3.4490   -5.6550 C.2     6  THR6        0.2364
     48 O           0.7540   -4.5340   -5.1410 O.2     6  THR6       -0.2737
     49 CB          2.4180   -1.8250   -5.6650 C.3     6  THR6        0.0792
     50 OG1         3.4050   -1.7860   -4.6330 O.3     6  THR6       -0.3897
     51 CG2         2.4010   -0.4950   -6.3870 C.3     6  THR6       -0.0367
     52 N          -0.2120   -3.2910   -6.7280 N.am    7  ARG7       -0.3057
     53 CA         -0.7900   -4.4130   -7.4530 C.3     7  ARG7        0.0627
     54 C           0.1060   -4.8350   -8.6200 C.2     7  ARG7        0.0619
     55 OXT         0.9880   -4.0390   -9.0140 O.co2   7  ARG7       -0.5479
     56 CB         -2.1890   -4.0350   -7.9820 C.3     7  ARG7       -0.0264
     57 CG         -3.2370   -5.1250   -7.9030 C.3     7  ARG7       -0.0202
     58 CD         -4.3000   -4.9370   -8.9660 C.3     7  ARG7        0.0645
     59 NE         -4.0590   -5.8110  -10.1140 N.pl3   7  ARG7       -0.2811
     60 CZ         -4.4970   -5.5700  -11.3590 C.cat   7  ARG7        0.3114
     61 NH2        -5.1860   -4.4640  -11.6300 N.pl3   7  ARG7       -0.2942
     62 NH1        -4.2550   -6.4380  -12.3180 N.pl3   7  ARG7       -0.3944
     63 O          -0.0150   -5.9040   -9.1960 O.co2   7  ARG7       -0.5479
     64 H           6.0455    5.4794    8.2433 H       1  PHE1        0.2094
     65 H           5.4731    5.1999    9.7824 H       1  PHE1        0.2094
     66 H           4.4855    5.9061    8.6421 H       1  PHE1        0.2094
     67 H           5.8831    4.5182    9.1316 H       1  PHE1        0.2094
     68 H           5.5203    3.1632    8.5628 H       1  PHE1        0.0980
     69 H           2.7053    4.1120    8.9096 H       1  PHE1        0.0374
     70 H           3.7826    3.5802   10.2232 H       1  PHE1        0.0374
     71 H           4.5873    1.2375   10.2302 H       1  PHE1        0.0620
     72 H           1.5110    2.5078    7.7043 H       1  PHE1        0.0620
     73 H           3.9199   -1.0483    9.9075 H       1  PHE1        0.0618
     74 H           0.8344    0.2005    7.3744 H       1  PHE1        0.0618
     75 H           2.0386   -1.5681    8.4926 H       1  PHE1        0.0618
     76 H           6.1480    2.9715    6.4959 H       2  LEU2        0.1496
     77 H           4.5249    4.1136    4.3403 H       2  LEU2        0.0595
     78 H           6.9772    4.5632    4.4985 H       2  LEU2        0.0290
     79 H           7.1702    2.8152    4.0861 H       2  LEU2        0.0290
     80 H           6.1048    3.2123    1.9898 H       2  LEU2        0.0296
     81 H           6.2733    6.1320    2.6428 H       2  LEU2        0.0232
     82 H           4.8048    5.1967    2.4954 H       2  LEU2        0.0232
     83 H           5.8230    5.4504    1.0982 H       2  LEU2        0.0232
     84 H           8.5124    4.9619    2.5241 H       2  LEU2        0.0232
     85 H           8.0474    4.3400    0.9589 H       2  LEU2        0.0232
     86 H           8.5657    3.2428    2.2161 H       2  LEU2        0.0232
     87 H           2.9282    2.8192    3.8841 H       3  LEU3        0.1495
     88 H           3.4900   -0.0205    3.3614 H       3  LEU3        0.0594
     89 H           1.8557    0.1589    5.0215 H       3  LEU3        0.0290
     90 H           1.0637   -0.2945    3.4495 H       3  LEU3        0.0290
     91 H           0.9150    2.4854    3.9984 H       3  LEU3        0.0296
     92 H          -1.1762    0.3827    3.4581 H       3  LEU3        0.0232
     93 H          -0.3533    1.3328    2.2443 H       3  LEU3        0.0232
     94 H          -1.4285    2.1100    3.3814 H       3  LEU3        0.0232
     95 H          -0.4976    0.5875    5.8613 H       3  LEU3        0.0232
     96 H          -0.7773    2.3097    5.7666 H       3  LEU3        0.0232
     97 H           0.7656    1.7043    6.3199 H       3  LEU3        0.0232
     98 H           4.2317    0.0233    1.3531 H       4  HIS4        0.1495
     99 H           2.6599    1.2862   -0.7531 H       4  HIS4        0.0595
    100 H           5.3796    0.1784   -0.5552 H       4  HIS4        0.0306
    101 H           4.5549    0.1336   -2.1284 H       4  HIS4        0.0306
    102 H           4.9139    1.0968   -0.9577 H       4  HIS4        0.0516
    103 H           3.6829    2.5426   -3.0159 H       4  HIS4        0.1472
    104 H           5.7062    2.9263    0.2133 H       4  HIS4        0.0527
    105 H           6.9022    2.3856   -0.9160 H       4  HIS4        0.0527
    106 H           4.7192    4.8148   -3.0069 H       4  HIS4        0.0993
    107 H           0.8412    0.0506   -0.5510 H       5  THR5        0.1496
    108 H           0.9847   -2.7818   -1.1772 H       5  THR5        0.0621
    109 H          -1.5359   -2.6112   -1.0963 H       5  THR5        0.0614
    110 H          -0.8700   -0.0947    0.0666 H       5  THR5        0.2099
    111 H           0.0181   -1.9283    1.3756 H       5  THR5        0.0255
    112 H          -0.2068   -3.5330    0.7218 H       5  THR5        0.0255
    113 H          -1.5772   -2.6402    1.3367 H       5  THR5        0.0255
    114 H           1.8773   -2.6097   -3.1864 H       6  THR6        0.1496
    115 H           0.3576   -1.3564   -5.3117 H       6  THR6        0.0621
    116 H           2.6573   -2.5952   -6.3682 H       6  THR6        0.0614
    117 H           3.1826   -1.0862   -3.9991 H       6  THR6        0.2099
    118 H           2.1626    0.2842   -5.6936 H       6  THR6        0.0255
    119 H           1.6645   -0.5197   -7.1628 H       6  THR6        0.0255
    120 H           3.3639   -0.3092   -6.8151 H       6  THR6        0.0255
    121 H          -0.3670   -2.3788   -7.0642 H       7  ARG7        0.1494
    122 H          -0.8743   -5.2377   -6.7764 H       7  ARG7        0.0560
    123 H          -2.5405   -3.1991   -7.4140 H       7  ARG7        0.0288
    124 H          -2.0609   -3.8283   -9.0240 H       7  ARG7        0.0288
    125 H          -2.7649   -6.0747   -8.0448 H       7  ARG7        0.0296
    126 H          -3.7050   -5.0777   -6.9420 H       7  ARG7        0.0296
    127 H          -5.2574   -5.1668   -8.5470 H       7  ARG7        0.0655
    128 H          -4.2693   -3.9211   -9.3006 H       7  ARG7        0.0655
    129 H          -3.5392   -6.6333   -9.9625 H       7  ARG7        0.2577
    130 H          -5.5040   -4.2942  -12.5461 H       7  ARG7        0.2545
    131 H          -5.3776   -3.8157  -10.9143 H       7  ARG7        0.2545
    132 H          -4.5754   -6.2634  -13.2324 H       7  ARG7        0.2155
    133 H          -3.7536   -7.2620  -12.1211 H       7  ARG7        0.2155
    134 H          -4.9870   -6.0220  -12.8282 H       7  ARG7        0.2155
@<TRIPOS>UNITY_ATOM_ATTR
1 1
charge 1
55 1
charge -1
62 1
charge 1
@<TRIPOS>BOND
     1    62    60    2
     2    61    60    1
     3    60    59    1
     4    59    58    1
     5    63    54   ar
     6    55    54   ar
     7    58    57    1
     8    54    53    1
     9    56    57    1
    10    56    53    1
    11    53    52    1
    12    52    47   am
    13    51    49    1
    14    49    46    1
    15    49    50    1
    16    47    48    2
    17    47    46    1
    18    46    45    1
    19    45    40   am
    20    41    40    2
    21    40    39    1
    22    34    36    1
    23    34    33    1
    24    36    37    2
    25    37    35    1
    26    33    32    1
    27    33    35    1
    28    39    38    1
    29    39    42    1
    30    31    30    2
    31    32    29    1
    32    30    38   am
    33    30    29    1
    34    42    43    1
    35    42    44    1
    36    29    28    1
    37    28    22   am
    38    23    22    2
    39    22    21    1
    40    19    17    1
    41    18    17    1
    42    17    16    1
    43    21    20    1
    44    21    24    1
    45    26    25    1
    46    20    14   am
    47    16    13    1
    48    24    25    1
    49    15    14    2
    50    14    13    1
    51    25    27    1
    52    13    12    1
    53    12     3   am
    54     4     3    2
    55     3     2    1
    56    10     8   ar
    57    10    11   ar
    58     8     6   ar
    59     2     1    1
    60     2     5    1
    61    11     9   ar
    62     6     5    1
    63     6     7   ar
    64     9     7   ar
    65     1    64    1
    66     1    65    1
    67     1    66    1
    68     1    67    1
    69     2    68    1
    70     5    69    1
    71     5    70    1
    72     7    71    1
    73     8    72    1
    74     9    73    1
    75    10    74    1
    76    11    75    1
    77    12    76    1
    78    13    77    1
    79    16    78    1
    80    16    79    1
    81    17    80    1
    82    18    81    1
    83    18    82    1
    84    18    83    1
    85    19    84    1
    86    19    85    1
    87    19    86    1
    88    20    87    1
    89    21    88    1
    90    24    89    1
    91    24    90    1
    92    25    91    1
    93    26    92    1
    94    26    93    1
    95    26    94    1
    96    27    95    1
    97    27    96    1
    98    27    97    1
    99    28    98    1
   100    29    99    1
   101    32   100    1
   102    32   101    1
   103    33   102    1
   104    34   103    1
   105    35   104    1
   106    35   105    1
   107    36   106    1
   108    38   107    1
   109    39   108    1
   110    42   109    1
   111    43   110    1
   112    44   111    1
   113    44   112    1
   114    44   113    1
   115    45   114    1
   116    46   115    1
   117    49   116    1
   118    50   117    1
   119    51   118    1
   120    51   119    1
   121    51   120    1
   122    52   121    1
   123    53   122    1
   124    56   123    1
   125    56   124    1
   126    57   125    1
   127    57   126    1
   128    58   127    1
   129    58   128    1
   130    59   129    1
   131    61   130    1
   132    61   131    1
   133    62   132    1
   134    62   133    1
   135    62   134    1
