@<TRIPOS>MOLECULE
/mnt/hpc/home/25menglei/25wenshaohua/MD/yzy/docking/dc/peptides/pdb/hlltlkkhv.pdb
 171 172 0 0 0
SMALL
GASTEIGER

@<TRIPOS>ATOM
      1 N           2.9290    0.2170    6.5650 N.3     1  HIS1       -0.0180
      2 CA          3.4800   -0.4900    5.4000 C.3     1  HIS1        0.0583
      3 C           2.7250   -0.1140    4.1280 C.2     1  HIS1        0.2648
      4 O           1.5010   -0.0110    4.1460 O.2     1  HIS1       -0.2694
      5 CB          3.3770   -1.9970    5.6130 C.3     1  HIS1        0.0432
      6 CG          4.5570   -2.5740    6.3330 C.ar    1  HIS1        0.0413
      7 ND1         5.3610   -1.8440    7.1800 N.ar    1  HIS1       -0.3480
      8 CD2         5.0520   -3.8510    6.3250 C.ar    1  HIS1        0.0486
      9 CE1         6.3040   -2.6310    7.6540 C.ar    1  HIS1        0.0935
     10 NE2         6.1280   -3.8510    7.1510 N.ar    1  HIS1       -0.2440
     11 N           3.4410    0.0710    3.0380 N.am    2  LEU2       -0.2993
     12 CA          2.8520    0.4080    1.7520 C.3     2  LEU2        0.0998
     13 C           2.9300   -0.7960    0.8170 C.2     2  LEU2        0.2340
     14 O           3.1640   -0.6580   -0.3810 O.2     2  LEU2       -0.2738
     15 CB          3.5740    1.6090    1.1530 C.3     2  LEU2       -0.0236
     16 CG          2.6710    2.5910    0.4120 C.3     2  LEU2       -0.0446
     17 CD2         1.7100    3.2620    1.3820 C.3     2  LEU2       -0.0626
     18 CD1         3.5000    3.6420   -0.3060 C.3     2  LEU2       -0.0626
     19 N           2.7250   -1.9350    1.3990 N.am    3  LEU3       -0.3025
     20 CA          2.8050   -3.1900    0.6700 C.3     3  LEU3        0.0997
     21 C           1.4200   -3.6750    0.2770 C.2     3  LEU3        0.2340
     22 O           1.1710   -4.0190   -0.8780 O.2     3  LEU3       -0.2738
     23 CB          3.5130   -4.2310    1.5400 C.3     3  LEU3       -0.0236
     24 CG          4.3150   -5.2740    0.7730 C.3     3  LEU3       -0.0446
     25 CD2         5.2780   -5.9830    1.6960 C.3     3  LEU3       -0.0626
     26 CD1         3.4140   -6.2800    0.0990 C.3     3  LEU3       -0.0626
     27 N           0.5320   -3.6600    1.2400 N.am    4  THR4       -0.3003
     28 CA         -0.8320   -4.1100    1.0140 C.3     4  THR4        0.1252
     29 C          -1.6460   -3.0600    0.2650 C.2     4  THR4        0.2365
     30 O          -2.5030   -3.3900   -0.5510 O.2     4  THR4       -0.2737
     31 CB         -1.5050   -4.4330    2.3520 C.3     4  THR4        0.0792
     32 OG1        -0.6160   -5.2150    3.1510 O.3     4  THR4       -0.3897
     33 CG2        -2.7940   -5.2090    2.1350 C.3     4  THR4       -0.0367
     34 N          -1.3640   -1.8020    0.5550 N.am    5  LEU5       -0.3024
     35 CA         -2.0730   -0.7040   -0.0780 C.3     5  LEU5        0.0997
     36 C          -1.8470   -0.6970   -1.5830 C.2     5  LEU5        0.2340
     37 O          -2.7320   -0.3210   -2.3450 O.2     5  LEU5       -0.2738
     38 CB         -1.6320    0.6210    0.5270 C.3     5  LEU5       -0.0236
     39 CG         -2.5290    1.8140    0.1890 C.3     5  LEU5       -0.0446
     40 CD2        -3.9030    1.6370    0.8010 C.3     5  LEU5       -0.0626
     41 CD1        -1.8960    3.1000    0.6820 C.3     5  LEU5       -0.0626
     42 N          -0.7030   -1.1010   -1.9940 N.am    6  LYS6       -0.3025
     43 CA         -0.3670   -1.1490   -3.4100 C.3     6  LYS6        0.0994
     44 C          -1.3050   -2.0760   -4.1720 C.2     6  LYS6        0.2339
     45 O          -1.5200   -1.9010   -5.3690 O.2     6  LYS6       -0.2738
     46 CB          1.0760   -1.6190   -3.5870 C.3     6  LYS6       -0.0258
     47 CG          2.0790   -0.4840   -3.4230 C.3     6  LYS6       -0.0460
     48 CD          2.3000    0.2340   -4.7260 C.3     6  LYS6       -0.0100
     49 CE          3.5170    1.1520   -4.6490 C.3     6  LYS6       -0.0349
     50 NZ          4.0230    1.5030   -5.9950 N.3     6  LYS6       -0.0289
     51 N          -1.8770   -3.0280   -3.4710 N.am    7  LYS7       -0.3025
     52 CA         -2.7980   -3.9830   -4.0570 C.3     7  LYS7        0.0994
     53 C          -4.1830   -3.3640   -4.2350 C.2     7  LYS7        0.2340
     54 O          -5.0140   -3.8970   -4.9720 O.2     7  LYS7       -0.2738
     55 CB         -2.9020   -5.2320   -3.1870 C.3     7  LYS7       -0.0258
     56 CG         -1.5680   -5.8240   -2.7740 C.3     7  LYS7       -0.0460
     57 CD         -1.1840   -7.0180   -3.6240 C.3     7  LYS7       -0.0100
     58 CE          0.0040   -7.7560   -3.0370 C.3     7  LYS7       -0.0349
     59 NZ          0.4830   -8.8320   -3.9230 N.3     7  LYS7       -0.0289
     60 N          -4.4220   -2.2590   -3.5380 N.am    8  HIS8       -0.3021
     61 CA         -5.7060   -1.5860   -3.5850 C.3     8  HIS8        0.1048
     62 C          -5.6770   -0.4040   -4.5450 C.2     8  HIS8        0.2342
     63 O          -6.7150    0.0230   -5.0490 O.2     8  HIS8       -0.2738
     64 CB         -6.1070   -1.1120   -2.1860 C.3     8  HIS8        0.0160
     65 CG         -6.6030   -2.2320   -1.3130 C.ar    8  HIS8        0.0375
     66 ND1        -7.9350   -2.4180   -1.0290 N.ar    8  HIS8       -0.3481
     67 CD2        -5.9470   -3.2180   -0.6750 C.ar    8  HIS8        0.0485
     68 CE1        -8.0600   -3.4790   -0.2440 C.ar    8  HIS8        0.0935
     69 NE2        -6.8740   -3.9860   -0.0110 N.ar    8  HIS8       -0.2440
     70 N          -4.4990    0.1120   -4.7820 N.am    9  VAL9       -0.3056
     71 CA         -4.3320    1.2590   -5.6630 C.3     9  VAL9        0.0649
     72 C          -3.5160    0.8610   -6.8830 C.2     9  VAL9        0.0622
     73 O          -4.0320    0.9920   -8.0210 O.co2   9  VAL9       -0.5479
     74 CB         -3.6640    2.4380   -4.9420 C.3     9  VAL9       -0.0230
     75 CG1        -3.5620    3.6400   -5.8560 C.3     9  VAL9       -0.0606
     76 CG2        -4.4310    2.7980   -3.6850 C.3     9  VAL9       -0.0606
     77 OXT        -2.4110    0.3850   -6.6980 O.co2   9  VAL9       -0.5479
     78 H           3.0005    1.2237    6.4169 H       1  HIS1        0.2094
     79 H           3.4547   -0.0421    7.3998 H       1  HIS1        0.2094
     80 H           1.9494   -0.0400    6.6867 H       1  HIS1        0.2094
     81 H           2.7275    1.1410    6.1828 H       1  HIS1        0.2094
     82 H           4.5056   -0.2048    5.2919 H       1  HIS1        0.0981
     83 H           3.2972   -2.4708    4.6569 H       1  HIS1        0.0390
     84 H           2.5155   -2.1735    6.2226 H       1  HIS1        0.0390
     85 H           5.2489   -0.8900    7.3957 H       1  HIS1        0.1665
     86 H           4.6798   -4.6546    5.7951 H       1  HIS1        0.0848
     87 H           7.0532   -2.3497    8.3056 H       1  HIS1        0.1027
     88 H           4.4192   -0.0232    3.0967 H       2  LEU2        0.1496
     89 H           1.8221    0.6655    1.8862 H       2  LEU2        0.0595
     90 H           4.0592    2.1366    1.9475 H       2  LEU2        0.0290
     91 H           4.2573    1.2199    0.4273 H       2  LEU2        0.0290
     92 H           2.1063    2.0446   -0.3142 H       2  LEU2        0.0296
     93 H           2.2663    3.8113    2.1126 H       2  LEU2        0.0232
     94 H           1.1182    2.5165    1.8708 H       2  LEU2        0.0232
     95 H           1.0697    3.9301    0.8449 H       2  LEU2        0.0232
     96 H           4.0704    4.1964    0.4096 H       2  LEU2        0.0232
     97 H           2.8510    4.3067   -0.8370 H       2  LEU2        0.0232
     98 H           4.1625    3.1632   -0.9964 H       2  LEU2        0.0232
     99 H           2.5095   -1.9510    2.3595 H       3  LEU3        0.1495
    100 H           3.3640   -3.0390   -0.2298 H       3  LEU3        0.0594
    101 H           2.7704   -4.7417    2.1168 H       3  LEU3        0.0290
    102 H           4.2184   -3.6915    2.1369 H       3  LEU3        0.0290
    103 H           4.8675   -4.7613    0.0136 H       3  LEU3        0.0296
    104 H           4.7293   -6.4972    2.4572 H       3  LEU3        0.0232
    105 H           5.9307   -5.2664    2.1491 H       3  LEU3        0.0232
    106 H           5.8560   -6.6876    1.1354 H       3  LEU3        0.0232
    107 H           2.8498   -6.8065    0.8403 H       3  LEU3        0.0232
    108 H           4.0082   -6.9747   -0.4571 H       3  LEU3        0.0232
    109 H           2.7452   -5.7720   -0.5640 H       3  LEU3        0.0232
    110 H           0.7930   -3.3382    2.1330 H       4  THR4        0.1496
    111 H          -0.7929   -4.9930    0.4109 H       4  THR4        0.0621
    112 H          -1.7369   -3.5135    2.8476 H       4  THR4        0.0614
    113 H          -0.4135   -6.0449    2.6915 H       4  THR4        0.2099
    114 H          -2.5756   -6.1319    1.6395 H       4  THR4        0.0255
    115 H          -3.4618   -4.6298    1.5321 H       4  THR4        0.0255
    116 H          -3.2519   -5.4116    3.0806 H       4  THR4        0.0255
    117 H          -0.6591   -1.6052    1.2134 H       5  LEU5        0.1495
    118 H          -3.1199   -0.8386    0.0977 H       5  LEU5        0.0594
    119 H          -0.6455    0.8361    0.1729 H       5  LEU5        0.0290
    120 H          -1.6836    0.4981    1.5887 H       5  LEU5        0.0290
    121 H          -2.6370    1.8677   -0.8742 H       5  LEU5        0.0296
    122 H          -3.8146    1.5812    1.8659 H       5  LEU5        0.0232
    123 H          -4.3443    0.7348    0.4320 H       5  LEU5        0.0232
    124 H          -4.5208    2.4699    0.5375 H       5  LEU5        0.0232
    125 H          -1.7831    3.0573    1.7452 H       5  LEU5        0.0232
    126 H          -2.5222    3.9280    0.4228 H       5  LEU5        0.0232
    127 H          -0.9358    3.2226    0.2260 H       5  LEU5        0.0232
    128 H          -0.0315   -1.3873   -1.3334 H       6  LYS6        0.1495
    129 H          -0.4763   -0.1619   -3.8082 H       6  LYS6        0.0594
    130 H           1.2850   -2.3711   -2.8551 H       6  LYS6        0.0288
    131 H           1.1755   -2.0021   -4.5811 H       6  LYS6        0.0288
    132 H           1.7058    0.2107   -2.6998 H       6  LYS6        0.0268
    133 H           3.0114   -0.8977   -3.0999 H       6  LYS6        0.0268
    134 H           2.4553   -0.4877   -5.5005 H       6  LYS6        0.0318
    135 H           1.4371    0.8311   -4.9352 H       6  LYS6        0.0318
    136 H           3.2421    2.0502   -4.1366 H       6  LYS6        0.0841
    137 H           4.2931    0.6343   -4.1250 H       6  LYS6        0.0841
    138 H           3.2970    1.9984   -6.5126 H       6  LYS6        0.2091
    139 H           4.2764    0.6513   -6.4957 H       6  LYS6        0.2091
    140 H           4.8442    2.1012   -5.9042 H       6  LYS6        0.2091
    141 H           4.7677    1.8990   -5.4215 H       6  LYS6        0.2091
    142 H          -1.6727   -3.0960   -2.5103 H       7  LYS7        0.1495
    143 H          -2.4170   -4.2577   -5.0184 H       7  LYS7        0.0594
    144 H          -3.4428   -5.9760   -3.7337 H       7  LYS7        0.0288
    145 H          -3.3950   -4.9344   -2.2852 H       7  LYS7        0.0288
    146 H          -0.8122   -5.0731   -2.8732 H       7  LYS7        0.0268
    147 H          -1.6558   -6.1567   -1.7608 H       7  LYS7        0.0268
    148 H          -2.0167   -7.6876   -3.6802 H       7  LYS7        0.0318
    149 H          -0.9140   -6.6655   -4.5975 H       7  LYS7        0.0318
    150 H           0.8001   -7.0584   -2.8803 H       7  LYS7        0.0841
    151 H          -0.3085   -8.2028   -2.1163 H       7  LYS7        0.0841
    152 H           0.7877   -8.4315   -4.8102 H       7  LYS7        0.2091
    153 H          -0.2731   -9.4956   -4.0914 H       7  LYS7        0.2091
    154 H           1.2658   -9.3135   -3.4806 H       7  LYS7        0.2091
    155 H          -0.2162   -8.1161   -3.7255 H       7  LYS7        0.2091
    156 H          -3.7071   -1.8860   -2.9732 H       8  HIS8        0.1495
    157 H          -6.4308   -2.2877   -3.9417 H       8  HIS8        0.0598
    158 H          -6.8841   -0.3827   -2.2815 H       8  HIS8        0.0351
    159 H          -5.2345   -0.7025   -1.7213 H       8  HIS8        0.0351
    160 H          -8.6745   -1.8558   -1.3549 H       8  HIS8        0.1665
    161 H          -4.9265   -3.3711   -0.6826 H       8  HIS8        0.0848
    162 H          -8.9504   -3.8475    0.1253 H       8  HIS8        0.1027
    163 H          -3.7059   -0.2847   -4.3544 H       9  VAL9        0.1494
    164 H          -5.3051    1.5786   -5.9725 H       9  VAL9        0.0562
    165 H          -2.6745    2.1395   -4.6652 H       9  VAL9        0.0317
    166 H          -4.5437    3.9535   -6.1439 H       9  VAL9        0.0233
    167 H          -3.0011    3.3779   -6.7287 H       9  VAL9        0.0233
    168 H          -3.0691    4.4384   -5.3416 H       9  VAL9        0.0233
    169 H          -5.4239    3.0989   -3.9469 H       9  VAL9        0.0233
    170 H          -3.9353    3.6024   -3.1828 H       9  VAL9        0.0233
    171 H          -4.4752    1.9469   -3.0381 H       9  VAL9        0.0233
@<TRIPOS>UNITY_ATOM_ATTR
1 1
charge 1
50 1
charge 1
59 1
charge 1
77 1
charge -1
@<TRIPOS>BOND
     1    73    72   ar
     2    72    77   ar
     3    72    71    1
     4    50    49    1
     5    75    74    1
     6    71    74    1
     7    71    70    1
     8    45    44    2
     9    63    62    2
    10    54    53    2
    11    74    76    1
    12    70    62   am
    13    48    49    1
    14    48    47    1
    15    62    61    1
    16    53    52    1
    17    53    60   am
    18    44    51   am
    19    44    43    1
    20    52    51    1
    21    52    55    1
    22    59    58    1
    23    57    58    1
    24    57    56    1
    25    46    47    1
    26    46    43    1
    27    61    60    1
    28    61    64    1
    29    43    42    1
    30    55    56    1
    31    37    36    2
    32    64    65    1
    33    42    36   am
    34    36    35    1
    35    65    66   ar
    36    65    67   ar
    37    66    68   ar
    38    22    21    2
    39    67    69   ar
    40    30    29    2
    41    14    13    2
    42    18    16    1
    43    68    69   ar
    44    35    38    1
    45    35    34    1
    46    26    24    1
    47    39    38    1
    48    39    41    1
    49    39    40    1
    50    29    34   am
    51    29    28    1
    52    21    20    1
    53    21    27   am
    54    16    15    1
    55    16    17    1
    56    20    19    1
    57    20    23    1
    58    24    23    1
    59    24    25    1
    60    13    19   am
    61    13    12    1
    62    28    27    1
    63    28    31    1
    64    15    12    1
    65    12    11    1
    66    33    31    1
    67    31    32    1
    68    11     3   am
    69     3     4    2
    70     3     2    1
    71     2     5    1
    72     2     1    1
    73     5     6    1
    74     8     6   ar
    75     8    10   ar
    76     6     7   ar
    77    10     9   ar
    78     7     9   ar
    79     1    78    1
    80     1    79    1
    81     1    80    1
    82     1    81    1
    83     2    82    1
    84     5    83    1
    85     5    84    1
    86     7    85    1
    87     8    86    1
    88     9    87    1
    89    11    88    1
    90    12    89    1
    91    15    90    1
    92    15    91    1
    93    16    92    1
    94    17    93    1
    95    17    94    1
    96    17    95    1
    97    18    96    1
    98    18    97    1
    99    18    98    1
   100    19    99    1
   101    20   100    1
   102    23   101    1
   103    23   102    1
   104    24   103    1
   105    25   104    1
   106    25   105    1
   107    25   106    1
   108    26   107    1
   109    26   108    1
   110    26   109    1
   111    27   110    1
   112    28   111    1
   113    31   112    1
   114    32   113    1
   115    33   114    1
   116    33   115    1
   117    33   116    1
   118    34   117    1
   119    35   118    1
   120    38   119    1
   121    38   120    1
   122    39   121    1
   123    40   122    1
   124    40   123    1
   125    40   124    1
   126    41   125    1
   127    41   126    1
   128    41   127    1
   129    42   128    1
   130    43   129    1
   131    46   130    1
   132    46   131    1
   133    47   132    1
   134    47   133    1
   135    48   134    1
   136    48   135    1
   137    49   136    1
   138    49   137    1
   139    50   138    1
   140    50   139    1
   141    50   140    1
   142    50   141    1
   143    51   142    1
   144    52   143    1
   145    55   144    1
   146    55   145    1
   147    56   146    1
   148    56   147    1
   149    57   148    1
   150    57   149    1
   151    58   150    1
   152    58   151    1
   153    59   152    1
   154    59   153    1
   155    59   154    1
   156    59   155    1
   157    60   156    1
   158    61   157    1
   159    64   158    1
   160    64   159    1
   161    66   160    1
   162    67   161    1
   163    68   162    1
   164    70   163    1
   165    71   164    1
   166    74   165    1
   167    75   166    1
   168    75   167    1
   169    75   168    1
   170    76   169    1
   171    76   170    1
   172    76   171    1
