@<TRIPOS>MOLECULE
/mnt/hpc/home/25menglei/25wenshaohua/MD/yzy/docking/dc/peptides/pdb/hlpllhrcc.pdb
 156 158 0 0 0
SMALL
GASTEIGER

@<TRIPOS>ATOM
      1 N           7.0730  -10.0250    6.9580 N.3     1  HIS1       -0.0180
      2 CA          7.0550   -9.1090    5.8020 C.3     1  HIS1        0.0583
      3 C           5.9210   -8.1060    5.9460 C.2     1  HIS1        0.2648
      4 O           4.8680   -8.4300    6.4890 O.2     1  HIS1       -0.2694
      5 CB          6.8830   -9.9070    4.5120 C.3     1  HIS1        0.0432
      6 CG          8.0840  -10.7640    4.2100 C.ar    1  HIS1        0.0413
      7 ND1         9.2030  -10.3010    3.5690 N.ar    1  HIS1       -0.3480
      8 CD2         8.3170  -12.0690    4.4870 C.ar    1  HIS1        0.0486
      9 CE1        10.0820  -11.2790    3.4580 C.ar    1  HIS1        0.0935
     10 NE2         9.5750  -12.3810    4.0140 N.ar    1  HIS1       -0.2440
     11 N           6.1530   -6.8890    5.4750 N.am    2  LEU2       -0.2992
     12 CA          5.1670   -5.8220    5.5750 C.3     2  LEU2        0.1000
     13 C           4.0960   -5.9840    4.4970 C.2     2  LEU2        0.2365
     14 O           4.4070   -6.4060    3.3740 O.2     2  LEU2       -0.2735
     15 CB          5.8450   -4.4560    5.4350 C.3     2  LEU2       -0.0236
     16 CG          6.8510   -4.1200    6.5450 C.3     2  LEU2       -0.0446
     17 CD1         7.5900   -2.8180    6.2050 C.3     2  LEU2       -0.0626
     18 CD2         6.1570   -3.9860    7.8920 C.3     2  LEU2       -0.0626
     19 N           2.8490   -5.6540    4.8200 N.am    3  PRO3       -0.2884
     20 CA          1.7550   -5.7370    3.8550 C.3     3  PRO3        0.1023
     21 C           1.8630   -4.6450    2.7990 C.2     3  PRO3        0.2342
     22 O           2.6220   -3.6820    2.9530 O.2     3  PRO3       -0.2738
     23 CB          0.5090   -5.5410    4.7080 C.3     3  PRO3       -0.0243
     24 CG          0.9940   -4.7210    5.8680 C.3     3  PRO3       -0.0350
     25 CD          2.4080   -5.1870    6.1280 C.3     3  PRO3        0.0156
     26 N           1.0880   -4.7880    1.7310 N.am    4  LEU4       -0.3025
     27 CA          1.1030   -3.8190    0.6510 C.3     4  LEU4        0.0996
     28 C           0.5570   -2.4830    1.1310 C.2     4  LEU4        0.2340
     29 O          -0.6300   -2.3550    1.4270 O.2     4  LEU4       -0.2738
     30 CB          0.2760   -4.3170   -0.5200 C.3     4  LEU4       -0.0236
     31 CG          0.8420   -5.5730   -1.1730 C.3     4  LEU4       -0.0446
     32 CD1        -0.1380   -6.0930   -2.2110 C.3     4  LEU4       -0.0626
     33 CD2         2.1870   -5.2940   -1.8160 C.3     4  LEU4       -0.0626
     34 N           1.4370   -1.4890    1.2080 N.am    5  LEU5       -0.3025
     35 CA          1.0520   -0.1530    1.6520 C.3     5  LEU5        0.0996
     36 C           0.7910    0.7550    0.4600 C.2     5  LEU5        0.2340
     37 O           1.4680    0.6760   -0.5620 O.2     5  LEU5       -0.2738
     38 CB          2.1460    0.4420    2.5220 C.3     5  LEU5       -0.0236
     39 CG          2.4000   -0.3330    3.8080 C.3     5  LEU5       -0.0446
     40 CD1         3.5820    0.2780    4.5360 C.3     5  LEU5       -0.0626
     41 CD2         1.1650   -0.3230    4.6960 C.3     5  LEU5       -0.0626
     42 N          -0.1750    1.6380    0.6270 N.am    6  HIS6       -0.3021
     43 CA         -0.5150    2.5620   -0.4460 C.3     6  HIS6        0.1048
     44 C           0.6160    3.5560   -0.6710 C.2     6  HIS6        0.2343
     45 O           1.0770    4.2140    0.2610 O.2     6  HIS6       -0.2738
     46 CB         -1.7910    3.3210   -0.0910 C.3     6  HIS6        0.0160
     47 CG         -2.9650    2.4060    0.0800 C.ar    6  HIS6        0.0375
     48 ND1        -3.6750    1.8900   -0.9690 N.ar    6  HIS6       -0.3481
     49 CD2        -3.5280    1.9270    1.2100 C.ar    6  HIS6        0.0485
     50 CE1        -4.6350    1.1260   -0.4920 C.ar    6  HIS6        0.0935
     51 NE2        -4.5770    1.1200    0.8330 N.ar    6  HIS6       -0.2440
     52 N           1.0690    3.6620   -1.8900 N.am    7  ARG7       -0.3025
     53 CA          2.1670    4.5520   -2.2420 C.3     7  ARG7        0.0995
     54 C           1.8840    5.2830   -3.5470 C.2     7  ARG7        0.2340
     55 O           2.5910    5.1070   -4.5330 O.2     7  ARG7       -0.2738
     56 CB          3.4790    3.7730   -2.3360 C.3     7  ARG7       -0.0231
     57 CG          3.4440    2.6730   -3.3760 C.3     7  ARG7       -0.0201
     58 CD          4.8240    2.0730   -3.5660 C.3     7  ARG7        0.0645
     59 NE          4.8340    1.1470   -4.7040 N.pl3   7  ARG7       -0.2811
     60 CZ          5.9230    0.5100   -5.1260 C.cat   7  ARG7        0.3114
     61 NH2         7.0820    0.6850   -4.5190 N.pl3   7  ARG7       -0.2942
     62 NH1         5.8380   -0.2900   -6.1670 N.pl3   7  ARG7       -0.3944
     63 N           0.8710    6.1190   -3.5660 N.am    8  CYS8       -0.3017
     64 CA          0.5030    6.8990   -4.7490 C.3     8  CYS8        0.1081
     65 C           0.0670    6.0100   -5.9110 C.2     8  CYS8        0.2347
     66 O           0.9050    5.4060   -6.5780 O.2     8  CYS8       -0.2737
     67 CB          1.6720    7.7850   -5.1880 C.3     8  CYS8        0.0177
     68 SG          1.2650    8.8610   -6.5780 S.3     8  CYS8       -0.1759
     69 N          -1.2320    5.9500   -6.1070 N.am    9  CYS9       -0.3050
     70 CA         -1.7740    5.1750   -7.2240 C.3     9  CYS9        0.0713
     71 C          -1.3830    3.7040   -7.1480 C.2     9  CYS9        0.0627
     72 O          -0.2450    3.3450   -7.4430 O.co2   9  CYS9       -0.5479
     73 CB         -1.3170    5.7730   -8.5600 C.3     9  CYS9        0.0144
     74 SG         -1.4150    7.5860   -8.6430 S.3     9  CYS9       -0.1761
     75 OXT        -2.2640    2.8940   -6.7670 O.co2   9  CYS9       -0.5479
     76 H           7.8367  -10.6926    6.8509 H       1  HIS1        0.2094
     77 H           6.1867  -10.5274    7.0076 H       1  HIS1        0.2094
     78 H           7.2081   -9.4884    7.8149 H       1  HIS1        0.2094
     79 H           7.1894   -9.3159    6.2341 H       1  HIS1        0.2094
     80 H           7.9832   -8.5779    5.7654 H       1  HIS1        0.0981
     81 H           6.0246  -10.5383    4.6090 H       1  HIS1        0.0390
     82 H           6.7650   -9.2110    3.7079 H       1  HIS1        0.0390
     83 H           9.3313   -9.3813    3.2420 H       1  HIS1        0.1665
     84 H           7.6697  -12.7144    4.9660 H       1  HIS1        0.0848
     85 H          11.0104  -11.2038    3.0136 H       1  HIS1        0.1027
     86 H           7.0181   -6.7007    5.0445 H       2  LEU2        0.1496
     87 H           4.7015   -5.8812    6.5366 H       2  LEU2        0.0595
     88 H           5.0833   -3.7045    5.4374 H       2  LEU2        0.0290
     89 H           6.4029   -4.4886    4.5225 H       2  LEU2        0.0290
     90 H           7.5558   -4.9224    6.6110 H       2  LEU2        0.0296
     91 H           6.8859   -2.0151    6.1388 H       2  LEU2        0.0232
     92 H           8.0942   -2.9284    5.2677 H       2  LEU2        0.0232
     93 H           8.3050   -2.6031    6.9715 H       2  LEU2        0.0232
     94 H           5.4460   -3.1876    7.8490 H       2  LEU2        0.0232
     95 H           6.8840   -3.7759    8.6484 H       2  LEU2        0.0232
     96 H           5.6529   -4.9003    8.1260 H       2  LEU2        0.0232
     97 H           1.7536   -6.6609    3.3153 H       3  PRO3        0.0597
     98 H           0.1233   -6.4818    5.0412 H       3  PRO3        0.0288
     99 H          -0.2886   -5.0694    4.1729 H       3  PRO3        0.0288
    100 H           0.3803   -4.8900    6.7281 H       3  PRO3        0.0281
    101 H           0.9536   -3.6726    5.6578 H       3  PRO3        0.0281
    102 H           3.0204   -4.3808    6.4743 H       3  PRO3        0.0465
    103 H           2.4696   -5.9400    6.8857 H       3  PRO3        0.0465
    104 H           0.4904   -5.5680    1.6703 H       4  LEU4        0.1495
    105 H           2.1159   -3.6888    0.3316 H       4  LEU4        0.0594
    106 H          -0.7117   -4.5330   -0.1697 H       4  LEU4        0.0290
    107 H           0.2836   -3.5457   -1.2616 H       4  LEU4        0.0290
    108 H           0.9864   -6.3152   -0.4159 H       4  LEU4        0.0296
    109 H          -0.2826   -5.3510   -2.9682 H       4  LEU4        0.0232
    110 H          -1.0743   -6.3097   -1.7405 H       4  LEU4        0.0232
    111 H           0.2527   -6.9846   -2.6553 H       4  LEU4        0.0232
    112 H           2.0707   -4.5529   -2.5790 H       4  LEU4        0.0232
    113 H           2.5691   -6.1948   -2.2490 H       4  LEU4        0.0232
    114 H           2.8701   -4.9374   -1.0736 H       4  LEU4        0.0232
    115 H           2.3741   -1.6590    0.9586 H       5  LEU5        0.1495
    116 H           0.1510   -0.2343    2.2234 H       5  LEU5        0.0594
    117 H           1.8648    1.4415    2.7807 H       5  LEU5        0.0290
    118 H           3.0511    0.4049    1.9525 H       5  LEU5        0.0290
    119 H           2.6211   -1.3513    3.5649 H       5  LEU5        0.0296
    120 H           3.3629    1.2965    4.7801 H       5  LEU5        0.0232
    121 H           4.4467    0.2401    3.9069 H       5  LEU5        0.0232
    122 H           3.7703   -0.2715    5.4346 H       5  LEU5        0.0232
    123 H           0.9203    0.6859    4.9553 H       5  LEU5        0.0232
    124 H           1.3615   -0.8825    5.5866 H       5  LEU5        0.0232
    125 H           0.3444   -0.7653    4.1707 H       5  LEU5        0.0232
    126 H          -0.6671    1.6723    1.4790 H       6  HIS6        0.1495
    127 H          -0.6684    1.9991   -1.3429 H       6  HIS6        0.0598
    128 H          -2.0075    4.0165   -0.8748 H       6  HIS6        0.0351
    129 H          -1.6268    3.8220    0.8401 H       6  HIS6        0.0351
    130 H          -3.4976    2.0614   -1.9221 H       6  HIS6        0.1665
    131 H          -3.2275    2.1286    2.1765 H       6  HIS6        0.0848
    132 H          -5.3256    0.6116   -1.0608 H       6  HIS6        0.1027
    133 H           0.6529    3.1199   -2.5987 H       7  ARG7        0.1495
    134 H           2.2602    5.2845   -1.4676 H       7  ARG7        0.0594
    135 H           4.2630    4.4558   -2.5889 H       7  ARG7        0.0289
    136 H           3.6428    3.3086   -1.3861 H       7  ARG7        0.0289
    137 H           2.7689    1.9073   -3.0553 H       7  ARG7        0.0296
    138 H           3.1177    3.0886   -4.3065 H       7  ARG7        0.0296
    139 H           5.5271    2.8591   -3.7465 H       7  ARG7        0.0655
    140 H           5.0897    1.5336   -2.6809 H       7  ARG7        0.0655
    141 H           3.9880    0.9883   -5.1818 H       7  ARG7        0.2577
    142 H           7.8821    0.2089   -4.8390 H       7  ARG7        0.2545
    143 H           7.1463    1.2916   -3.7462 H       7  ARG7        0.2545
    144 H           4.9730   -0.4197   -6.6188 H       7  ARG7        0.2155
    145 H           6.6394   -0.7590   -6.4941 H       7  ARG7        0.2155
    146 H           6.3913   -0.9328   -5.6670 H       7  ARG7        0.2155
    147 H           0.3347    6.2259   -2.7473 H       8  CYS8        0.1495
    148 H          -0.3302    7.5119   -4.4750 H       8  CYS8        0.0603
    149 H           1.9657    8.3956   -4.3599 H       8  CYS8        0.0397
    150 H           2.4602    7.1361   -5.5082 H       8  CYS8        0.0397
    151 H           0.2635    9.7077   -6.2178 H       8  CYS8        0.1017
    152 H          -1.8421    6.4282   -5.5001 H       9  CYS9        0.1494
    153 H          -2.8406    5.2277   -7.1569 H       9  CYS9        0.0568
    154 H          -0.2999    5.4848   -8.7253 H       9  CYS9        0.0396
    155 H          -1.9837    5.3964   -9.3074 H       9  CYS9        0.0396
    156 H          -0.5852    8.1280   -7.7117 H       9  CYS9        0.1017
@<TRIPOS>UNITY_ATOM_ATTR
1 1
charge 1
62 1
charge 1
75 1
charge -1
@<TRIPOS>BOND
     1    74    73    1
     2    73    70    1
     3    72    71   ar
     4    70    71    1
     5    70    69    1
     6    71    75   ar
     7    68    67    1
     8    66    65    2
     9    62    60    2
    10    69    65   am
    11    65    64    1
    12    67    64    1
    13    60    59    1
    14    60    61    1
    15    64    63    1
    16    59    58    1
    17    55    54    2
    18    63    54   am
    19    58    57    1
    20    54    53    1
    21    57    56    1
    22    56    53    1
    23    53    52    1
    24    32    31    1
    25    52    44   am
    26    33    31    1
    27    31    30    1
    28    48    50   ar
    29    48    47   ar
    30    44    43    1
    31    44    45    2
    32    37    36    2
    33    30    27    1
    34    50    51   ar
    35    43    46    1
    36    43    42    1
    37    46    47    1
    38    47    49   ar
    39    36    42   am
    40    36    35    1
    41    27    28    1
    42    27    26    1
    43    51    49   ar
    44    28    34   am
    45    28    29    2
    46    34    35    1
    47    35    38    1
    48    26    21   am
    49    38    39    1
    50    21    22    2
    51    21    20    1
    52    14    13    2
    53     9     7   ar
    54     9    10   ar
    55     7     6   ar
    56    39    40    1
    57    39    41    1
    58    20    23    1
    59    20    19    1
    60    10     8   ar
    61     6     8   ar
    62     6     5    1
    63    13    19   am
    64    13    12    1
    65     5     2    1
    66    23    24    1
    67    19    25    1
    68    15    12    1
    69    15    16    1
    70    11    12    1
    71    11     3   am
    72     2     3    1
    73     2     1    1
    74    24    25    1
    75     3     4    2
    76    17    16    1
    77    16    18    1
    78     1    76    1
    79     1    77    1
    80     1    78    1
    81     1    79    1
    82     2    80    1
    83     5    81    1
    84     5    82    1
    85     7    83    1
    86     8    84    1
    87     9    85    1
    88    11    86    1
    89    12    87    1
    90    15    88    1
    91    15    89    1
    92    16    90    1
    93    17    91    1
    94    17    92    1
    95    17    93    1
    96    18    94    1
    97    18    95    1
    98    18    96    1
    99    20    97    1
   100    23    98    1
   101    23    99    1
   102    24   100    1
   103    24   101    1
   104    25   102    1
   105    25   103    1
   106    26   104    1
   107    27   105    1
   108    30   106    1
   109    30   107    1
   110    31   108    1
   111    32   109    1
   112    32   110    1
   113    32   111    1
   114    33   112    1
   115    33   113    1
   116    33   114    1
   117    34   115    1
   118    35   116    1
   119    38   117    1
   120    38   118    1
   121    39   119    1
   122    40   120    1
   123    40   121    1
   124    40   122    1
   125    41   123    1
   126    41   124    1
   127    41   125    1
   128    42   126    1
   129    43   127    1
   130    46   128    1
   131    46   129    1
   132    48   130    1
   133    49   131    1
   134    50   132    1
   135    52   133    1
   136    53   134    1
   137    56   135    1
   138    56   136    1
   139    57   137    1
   140    57   138    1
   141    58   139    1
   142    58   140    1
   143    59   141    1
   144    61   142    1
   145    61   143    1
   146    62   144    1
   147    62   145    1
   148    62   146    1
   149    63   147    1
   150    64   148    1
   151    67   149    1
   152    67   150    1
   153    68   151    1
   154    69   152    1
   155    70   153    1
   156    73   154    1
   157    73   155    1
   158    74   156    1
