@<TRIPOS>MOLECULE
/mnt/hpc/home/25menglei/25wenshaohua/MD/yzy/docking/dc/peptides/pdb/hvlllrqca.pdb
 159 159 0 0 0
SMALL
GASTEIGER

@<TRIPOS>ATOM
      1 N           2.6090   -7.8570    2.7600 N.3     1  HIS1       -0.0182
      2 CA          3.4050   -6.6220    2.6690 C.3     1  HIS1        0.0546
      3 C           2.5060   -5.3860    2.6130 C.2     1  HIS1        0.2645
      4 O           1.7100   -5.2400    1.6940 O.2     1  HIS1       -0.2695
      5 CB          4.2680   -6.6660    1.4270 C.3     1  HIS1        0.0215
      6 CG          5.7020   -6.3240    1.7130 C.3     1  HIS1        0.0466
      7 ND1         6.0830   -5.2760    2.5070 N.pl3   1  HIS1       -0.3305
      8 CD2         6.8440   -6.9250    1.2810 C.3     1  HIS1        0.0596
      9 CE1         7.4110   -5.2410    2.5550 C.2     1  HIS1        0.0761
     10 NE2         7.8880   -6.2280    1.8170 N.2     1  HIS1       -0.2749
     11 N           2.6360   -4.5250    3.6030 N.am    2  VAL2       -0.2990
     12 CA          1.8310   -3.3100    3.6740 C.3     2  VAL2        0.1018
     13 C           2.5430   -2.1250    3.0360 C.2     2  VAL2        0.2342
     14 O           1.9000   -1.2060    2.5360 O.2     2  VAL2       -0.2738
     15 CB          1.5010   -2.9780    5.1310 C.3     2  VAL2       -0.0197
     16 CG1         0.8030   -1.6380    5.2320 C.3     2  VAL2       -0.0605
     17 CG2         0.6470   -4.0720    5.7310 C.3     2  VAL2       -0.0605
     18 N           3.8610   -2.1460    3.0710 N.am    3  LEU3       -0.3025
     19 CA          4.6530   -1.0580    2.5160 C.3     3  LEU3        0.0996
     20 C           4.3740   -0.8610    1.0370 C.2     3  LEU3        0.2340
     21 O           4.0340    0.2320    0.5930 O.2     3  LEU3       -0.2738
     22 CB          6.1360   -1.3280    2.7560 C.3     3  LEU3       -0.0236
     23 CG          6.7960   -0.2660    3.6060 C.3     3  LEU3       -0.0446
     24 CD1         6.7030    1.0870    2.9310 C.3     3  LEU3       -0.0626
     25 CD2         6.1350   -0.2290    4.9760 C.3     3  LEU3       -0.0626
     26 N           4.5160   -1.9320    0.2680 N.am    4  LEU4       -0.3025
     27 CA          4.2710   -1.8550   -1.1650 C.3     4  LEU4        0.0996
     28 C           2.8180   -1.4750   -1.4360 C.2     4  LEU4        0.2340
     29 O           2.5230   -0.6780   -2.3120 O.2     4  LEU4       -0.2738
     30 CB          4.6040   -3.1910   -1.8130 C.3     4  LEU4       -0.0236
     31 CG          3.7990   -4.3610   -1.2790 C.3     4  LEU4       -0.0446
     32 CD1         2.4890   -4.4900   -2.0530 C.3     4  LEU4       -0.0626
     33 CD2         4.5950   -5.6460   -1.4130 C.3     4  LEU4       -0.0626
     34 N           1.9190   -2.0570   -0.6740 N.am    5  LEU5       -0.3025
     35 CA          0.4990   -1.7700   -0.8300 C.3     5  LEU5        0.0996
     36 C           0.1690   -0.3640   -0.3570 C.2     5  LEU5        0.2340
     37 O          -0.6950    0.3020   -0.9190 O.2     5  LEU5       -0.2738
     38 CB         -0.3120   -2.7900   -0.0310 C.3     5  LEU5       -0.0236
     39 CG         -1.5910   -2.2470    0.5770 C.3     5  LEU5       -0.0446
     40 CD1        -2.6150   -1.9380   -0.5120 C.3     5  LEU5       -0.0626
     41 CD2        -2.1790   -3.2600    1.5620 C.3     5  LEU5       -0.0626
     42 N           0.8520    0.0670    0.6720 N.am    6  ARG6       -0.3025
     43 CA          0.6240    1.3860    1.2350 C.3     6  ARG6        0.0995
     44 C           0.7630    2.4760    0.1790 C.2     6  ARG6        0.2339
     45 O          -0.0150    3.4250    0.1610 O.2     6  ARG6       -0.2738
     46 CB          1.6020    1.6060    2.3910 C.3     6  ARG6       -0.0231
     47 CG          1.9000    3.0600    2.6490 C.3     6  ARG6       -0.0201
     48 CD          3.2610    3.3730    2.0230 C.3     6  ARG6        0.0645
     49 NE          3.7680    4.6550    2.5090 N.pl3   6  ARG6       -0.2811
     50 CZ          4.8150    5.2600    1.9980 C.cat   6  ARG6        0.3114
     51 NH1         5.4730    4.7150    0.9930 N.pl3   6  ARG6       -0.3944
     52 NH2         5.2120    6.4150    2.4780 N.pl3   6  ARG6       -0.2942
     53 N           1.7300    2.3580   -0.6830 N.am    7  GLN7       -0.3025
     54 CA          1.9550    3.3420   -1.7410 C.3     7  GLN7        0.0999
     55 C           1.2180    2.9680   -3.0130 C.2     7  GLN7        0.2340
     56 O           0.7320    3.8360   -3.7330 O.2     7  GLN7       -0.2738
     57 CB          3.4480    3.4900   -2.0090 C.3     7  GLN7       -0.0177
     58 CG          4.0890    2.2530   -2.6090 C.3     7  GLN7        0.0259
     59 CD          4.2680    2.4260   -4.1120 C.2     7  GLN7        0.2106
     60 OE1         3.9260    1.5470   -4.9030 O.2     7  GLN7       -0.2760
     61 NE2         4.8080    3.5560   -4.5250 N.am    7  GLN7       -0.3293
     62 N           1.1440    1.6690   -3.2920 N.am    8  CYS8       -0.3017
     63 CA          0.4530    1.1830   -4.4690 C.3     8  CYS8        0.1081
     64 C          -1.0540    1.1930   -4.2650 C.2     8  CYS8        0.2346
     65 O          -1.8090    1.0650   -5.2200 O.2     8  CYS8       -0.2737
     66 CB          0.9140   -0.2440   -4.7960 C.3     8  CYS8        0.0177
     67 SG          2.5600   -0.2850   -5.5350 S.3     8  CYS8       -0.1759
     68 N          -1.4600    1.3320   -3.0340 N.am    9  ALA9       -0.3061
     69 CA         -2.8750    1.3360   -2.6850 C.3     9  ALA9        0.0598
     70 C          -3.7050    2.0140   -3.7710 C.2     9  ALA9        0.0617
     71 O          -4.4530    1.3060   -4.4830 O.co2   9  ALA9       -0.5479
     72 CB         -3.0700    2.0380   -1.3540 C.3     9  ALA9       -0.0413
     73 OXT        -3.6300    3.2070   -3.9000 O.co2   9  ALA9       -0.5479
     74 H           3.2339   -8.6624    2.7957 H       1  HIS1        0.2094
     75 H           2.0036   -7.9323    1.9425 H       1  HIS1        0.2094
     76 H           2.0380   -7.8320    3.6048 H       1  HIS1        0.2094
     77 H           2.9874   -7.8479    3.7072 H       1  HIS1        0.2094
     78 H           4.0183   -6.5562    3.5433 H       1  HIS1        0.0978
     79 H           4.2258   -7.6523    1.0142 H       1  HIS1        0.0345
     80 H           3.8896   -5.9370    0.7412 H       1  HIS1        0.0345
     81 H           4.8417   -6.8331    1.3313 H       1  HIS1        0.0518
     82 H           5.4750   -4.6523    2.9659 H       1  HIS1        0.1472
     83 H           6.8929   -6.8965    0.2125 H       1  HIS1        0.0527
     84 H           6.8740   -7.9510    1.5833 H       1  HIS1        0.0527
     85 H           7.9759   -4.5564    3.0814 H       1  HIS1        0.0993
     86 H           3.2934   -4.7066    4.3130 H       2  VAL2        0.1497
     87 H           0.9280   -3.4927    3.1298 H       2  VAL2        0.0597
     88 H           2.4157   -2.9153    5.6826 H       2  VAL2        0.0318
     89 H          -0.1174   -1.6733    4.6874 H       2  VAL2        0.0233
     90 H           1.4319   -0.8764    4.8205 H       2  VAL2        0.0233
     91 H           0.6013   -1.4175    6.2594 H       2  VAL2        0.0233
     92 H          -0.2720   -4.1454    5.1879 H       2  VAL2        0.0233
     93 H           0.4388   -3.8409    6.7548 H       2  VAL2        0.0233
     94 H           1.1698   -5.0039    5.6749 H       2  VAL2        0.0233
     95 H           4.3195   -2.9144    3.4815 H       3  LEU3        0.1495
     96 H           4.3751   -0.1521    3.0130 H       3  LEU3        0.0594
     97 H           6.6338   -1.3663    1.8096 H       3  LEU3        0.0290
     98 H           6.2128   -2.2558    3.2834 H       3  LEU3        0.0290
     99 H           7.8321   -0.5050    3.7253 H       3  LEU3        0.0296
    100 H           5.6742    1.3501    2.7996 H       3  LEU3        0.0232
    101 H           7.1846    1.0433    1.9765 H       3  LEU3        0.0232
    102 H           7.1845    1.8233    3.5401 H       3  LEU3        0.0232
    103 H           5.0978    0.0095    4.8653 H       3  LEU3        0.0232
    104 H           6.6095    0.5152    5.5810 H       3  LEU3        0.0232
    105 H           6.2329   -1.1857    5.4452 H       3  LEU3        0.0232
    106 H           4.7899   -2.7878    0.6702 H       4  LEU4        0.1495
    107 H           4.8981   -1.0981   -1.5878 H       4  LEU4        0.0594
    108 H           4.4197   -3.1091   -2.8638 H       4  LEU4        0.0290
    109 H           5.6295   -3.3950   -1.5857 H       4  LEU4        0.0290
    110 H           3.5838   -4.1863   -0.2455 H       4  LEU4        0.0296
    111 H           2.7014   -4.6648   -3.0870 H       4  LEU4        0.0232
    112 H           1.9249   -3.5863   -1.9526 H       4  LEU4        0.0232
    113 H           1.9227   -5.3092   -1.6617 H       4  LEU4        0.0232
    114 H           4.8126   -5.8248   -2.4453 H       4  LEU4        0.0232
    115 H           4.0235   -6.4619   -1.0224 H       4  LEU4        0.0232
    116 H           5.5102   -5.5573   -0.8658 H       4  LEU4        0.0232
    117 H           2.2101   -2.6980    0.0142 H       5  LEU5        0.1495
    118 H           0.2488   -1.8372   -1.8682 H       5  LEU5        0.0594
    119 H           0.3043   -3.1577    0.7626 H       5  LEU5        0.0290
    120 H          -0.6060   -3.5512   -0.7232 H       5  LEU5        0.0290
    121 H          -1.3566   -1.3422    1.0979 H       5  LEU5        0.0296
    122 H          -2.8567   -2.8369   -1.0397 H       5  LEU5        0.0232
    123 H          -2.2052   -1.2230   -1.1944 H       5  LEU5        0.0232
    124 H          -3.5009   -1.5375   -0.0652 H       5  LEU5        0.0232
    125 H          -2.4144   -4.1661    1.0438 H       5  LEU5        0.0232
    126 H          -3.0689   -2.8574    1.9989 H       5  LEU5        0.0232
    127 H          -1.4648   -3.4648    2.3320 H       5  LEU5        0.0232
    128 H           1.5360   -0.5160    1.0738 H       6  ARG6        0.1495
    129 H          -0.3793    1.4417    1.6026 H       6  ARG6        0.0594
    130 H           2.5197    1.1068    2.1595 H       6  ARG6        0.0289
    131 H           1.1426    1.2144    3.2745 H       6  ARG6        0.0289
    132 H           1.1441    3.6719    2.2028 H       6  ARG6        0.0296
    133 H           1.9158    3.2590    3.7002 H       6  ARG6        0.0296
    134 H           3.9536    2.5998    2.2824 H       6  ARG6        0.0655
    135 H           3.1478    3.4272    0.9604 H       6  ARG6        0.0655
    136 H           3.2995    5.0875    3.2591 H       6  ARG6        0.2577
    137 H           6.2577    5.1721    0.6128 H       6  ARG6        0.2155
    138 H           5.1794    3.8511    0.6232 H       6  ARG6        0.2155
    139 H           6.0145    4.0227    0.5495 H       6  ARG6        0.2155
    140 H           5.9978    6.8648    2.0914 H       6  ARG6        0.2545
    141 H           4.7241    6.8317    3.2247 H       6  ARG6        0.2545
    142 H           2.3304    1.5802   -0.6210 H       7  GLN7        0.1495
    143 H           1.5665    4.2819   -1.4086 H       7  GLN7        0.0595
    144 H           3.5896    4.3056   -2.6869 H       7  GLN7        0.0292
    145 H           3.9190    3.6567   -1.0628 H       7  GLN7        0.0292
    146 H           5.0453    2.0958   -2.1555 H       7  GLN7        0.0359
    147 H           3.4547    1.4103   -2.4289 H       7  GLN7        0.0359
    148 H           4.9439    3.7138   -5.4872 H       7  GLN7        0.1449
    149 H           5.0752    4.2418   -3.8711 H       7  GLN7        0.1449
    150 H           1.5693    1.0223   -2.6836 H       8  CYS8        0.1495
    151 H           0.6902    1.8354   -5.2833 H       8  CYS8        0.0603
    152 H           0.9294   -0.8155   -3.8916 H       8  CYS8        0.0397
    153 H           0.2274   -0.6529   -5.5076 H       8  CYS8        0.0397
    154 H           3.4637    0.2284   -4.6578 H       8  CYS8        0.1017
    155 H          -0.7912    1.4373   -2.3192 H       9  ALA9        0.1494
    156 H          -3.2093    0.3230   -2.6020 H       9  ALA9        0.0557
    157 H          -2.7367    3.0517   -1.4332 H       9  ALA9        0.0251
    158 H          -2.5036    1.5343   -0.5987 H       9  ALA9        0.0251
    159 H          -4.1072    2.0231   -1.0915 H       9  ALA9        0.0251
@<TRIPOS>UNITY_ATOM_ATTR
1 1
charge 1
51 1
charge 1
73 1
charge -1
@<TRIPOS>BOND
     1    67    66    1
     2    65    64    2
     3    60    59    2
     4    66    63    1
     5    61    59   am
     6    71    70   ar
     7    63    64    1
     8    63    62    1
     9    64    68   am
    10    59    58    1
    11    73    70   ar
    12    70    69    1
    13    56    55    2
    14    62    55   am
    15    68    69    1
    16    55    54    1
    17    69    72    1
    18    58    57    1
    19    29    28    2
    20    32    31    1
    21    57    54    1
    22    30    31    1
    23    30    27    1
    24    54    53    1
    25    28    27    1
    26    28    34   am
    27    33    31    1
    28    27    26    1
    29    37    36    2
    30    35    34    1
    31    35    36    1
    32    35    38    1
    33    53    44   am
    34    40    39    1
    35    36    42   am
    36    38    39    1
    37    45    44    2
    38    44    43    1
    39    26    20   am
    40    39    41    1
    41    21    20    2
    42    42    43    1
    43    51    50    2
    44    20    19    1
    45    43    46    1
    46     8     6    1
    47     8    10    1
    48     5     6    1
    49     5     2    1
    50     4     3    2
    51     6     7    1
    52    10     9    2
    53    50    52    1
    54    50    49    1
    55    48    49    1
    56    48    47    1
    57    46    47    1
    58     7     9    1
    59    19    22    1
    60    19    18    1
    61    14    13    2
    62     3     2    1
    63     3    11   am
    64     2     1    1
    65    22    23    1
    66    24    23    1
    67    13    18   am
    68    13    12    1
    69    11    12    1
    70    23    25    1
    71    12    15    1
    72    15    16    1
    73    15    17    1
    74     1    74    1
    75     1    75    1
    76     1    76    1
    77     1    77    1
    78     2    78    1
    79     5    79    1
    80     5    80    1
    81     6    81    1
    82     7    82    1
    83     8    83    1
    84     8    84    1
    85     9    85    1
    86    11    86    1
    87    12    87    1
    88    15    88    1
    89    16    89    1
    90    16    90    1
    91    16    91    1
    92    17    92    1
    93    17    93    1
    94    17    94    1
    95    18    95    1
    96    19    96    1
    97    22    97    1
    98    22    98    1
    99    23    99    1
   100    24   100    1
   101    24   101    1
   102    24   102    1
   103    25   103    1
   104    25   104    1
   105    25   105    1
   106    26   106    1
   107    27   107    1
   108    30   108    1
   109    30   109    1
   110    31   110    1
   111    32   111    1
   112    32   112    1
   113    32   113    1
   114    33   114    1
   115    33   115    1
   116    33   116    1
   117    34   117    1
   118    35   118    1
   119    38   119    1
   120    38   120    1
   121    39   121    1
   122    40   122    1
   123    40   123    1
   124    40   124    1
   125    41   125    1
   126    41   126    1
   127    41   127    1
   128    42   128    1
   129    43   129    1
   130    46   130    1
   131    46   131    1
   132    47   132    1
   133    47   133    1
   134    48   134    1
   135    48   135    1
   136    49   136    1
   137    51   137    1
   138    51   138    1
   139    51   139    1
   140    52   140    1
   141    52   141    1
   142    53   142    1
   143    54   143    1
   144    57   144    1
   145    57   145    1
   146    58   146    1
   147    58   147    1
   148    61   148    1
   149    61   149    1
   150    62   150    1
   151    63   151    1
   152    66   152    1
   153    66   153    1
   154    67   154    1
   155    68   155    1
   156    69   156    1
   157    72   157    1
   158    72   158    1
   159    72   159    1
