@<TRIPOS>MOLECULE
/mnt/hpc/home/25menglei/25wenshaohua/MD/yzy/docking/dc/peptides/pdb/llhlpkrtt.pdb
 168 169 0 0 0
SMALL
GASTEIGER

@<TRIPOS>ATOM
      1 N          11.2320   -8.3360    1.3820 N.3     1  LEU1       -0.0183
      2 CA         10.7360   -6.9490    1.3500 C.3     1  LEU1        0.0531
      3 C           9.3170   -6.9160    0.8010 C.2     1  LEU1        0.2645
      4 O           9.1080   -7.1320   -0.3910 O.2     1  LEU1       -0.2695
      5 CB         11.6680   -6.0760    0.5050 C.3     1  LEU1        0.0038
      6 CG         11.6140   -4.5820    0.8200 C.3     1  LEU1       -0.0410
      7 CD1        12.8160   -3.8750    0.2200 C.3     1  LEU1       -0.0625
      8 CD2        10.3240   -3.9390    0.3240 C.3     1  LEU1       -0.0625
      9 N           8.3230   -6.6450    1.6600 N.am    2  LEU2       -0.2993
     10 CA          6.9280   -6.5680    1.2470 C.3     2  LEU2        0.0998
     11 C           6.3580   -5.1890    1.5630 C.2     2  LEU2        0.2340
     12 O           6.0740   -4.8740    2.7140 O.2     2  LEU2       -0.2738
     13 CB          6.1080   -7.6400    1.9490 C.3     2  LEU2       -0.0236
     14 CG          6.4270   -9.0720    1.5160 C.3     2  LEU2       -0.0446
     15 CD2         7.6400   -9.6100    2.2630 C.3     2  LEU2       -0.0626
     16 CD1         5.2220   -9.9740    1.7510 C.3     2  LEU2       -0.0626
     17 N           6.1850   -4.3760    0.5340 N.am    3  HIS3       -0.3021
     18 CA          5.6320   -3.0330    0.6890 C.3     3  HIS3        0.1048
     19 C           4.4540   -2.8500   -0.2620 C.2     3  HIS3        0.2343
     20 O           4.6180   -2.4240   -1.4080 O.2     3  HIS3       -0.2738
     21 CB          6.7120   -1.9890    0.4150 C.3     3  HIS3        0.0160
     22 CG          6.2760   -0.6060    0.7940 C.ar    3  HIS3        0.0375
     23 ND1         5.6490    0.2550   -0.0740 N.ar    3  HIS3       -0.3481
     24 CD2         6.3990    0.0660    1.9660 C.ar    3  HIS3        0.0485
     25 CE1         5.4030    1.3910    0.5690 C.ar    3  HIS3        0.0935
     26 NE2         5.8380    1.3060    1.8140 N.ar    3  HIS3       -0.2440
     27 N           3.2910   -3.2120    0.2170 N.am    4  LEU4       -0.3024
     28 CA          2.0770   -3.1200   -0.5890 C.3     4  LEU4        0.0999
     29 C           1.0310   -2.2440    0.0990 C.2     4  LEU4        0.2365
     30 O           0.2790   -2.7310    0.9460 O.2     4  LEU4       -0.2735
     31 CB          1.5020   -4.5170   -0.8630 C.3     4  LEU4       -0.0236
     32 CG          0.2870   -4.5510   -1.8020 C.3     4  LEU4       -0.0446
     33 CD1         0.6940   -4.2000   -3.2300 C.3     4  LEU4       -0.0626
     34 CD2        -0.3580   -5.9410   -1.7890 C.3     4  LEU4       -0.0626
     35 N           0.9410   -0.9510   -0.2690 N.am    5  PRO5       -0.2884
     36 CA         -0.0430   -0.0420    0.3080 C.3     5  PRO5        0.1023
     37 C          -1.4590   -0.3700   -0.1600 C.2     5  PRO5        0.2342
     38 O          -1.6500   -0.8510   -1.2800 O.2     5  PRO5       -0.2738
     39 CB          0.4020    1.3320   -0.1950 C.3     5  PRO5       -0.0243
     40 CG          1.1720    1.0380   -1.4580 C.3     5  PRO5       -0.0350
     41 CD          1.8230   -0.2990   -1.2360 C.3     5  PRO5        0.0156
     42 N          -2.4300   -0.1040    0.7220 N.am    6  LYS6       -0.3025
     43 CA         -3.8270   -0.3990    0.3950 C.3     6  LYS6        0.0994
     44 C          -4.3500    0.5150   -0.7050 C.2     6  LYS6        0.2339
     45 O          -5.2280    0.1270   -1.4710 O.2     6  LYS6       -0.2738
     46 CB         -4.6910   -0.2770    1.6410 C.3     6  LYS6       -0.0258
     47 CG         -4.3320   -1.2670    2.7170 C.3     6  LYS6       -0.0460
     48 CD         -4.7730   -2.6840    2.3590 C.3     6  LYS6       -0.0100
     49 CE         -6.2800   -2.8780    2.5020 C.3     6  LYS6       -0.0349
     50 NZ         -6.6810   -4.2750    2.2420 N.3     6  LYS6       -0.0289
     51 N          -3.8270    1.7470   -0.7690 N.am    7  ARG7       -0.3025
     52 CA         -4.2700    2.7280   -1.7630 C.3     7  ARG7        0.0995
     53 C          -3.1000    3.5450   -2.2800 C.2     7  ARG7        0.2340
     54 O          -2.3250    4.0840   -1.4960 O.2     7  ARG7       -0.2738
     55 CB         -5.3290    3.6350   -1.1500 C.3     7  ARG7       -0.0231
     56 CG         -6.0110    4.5500   -2.1440 C.3     7  ARG7       -0.0201
     57 CD         -6.7480    3.7670   -3.2290 C.3     7  ARG7        0.0645
     58 NE         -8.0290    4.3760   -3.6000 N.pl3   7  ARG7       -0.2811
     59 CZ         -8.7450    4.0230   -4.6630 C.cat   7  ARG7        0.3114
     60 NH1        -8.3120    3.0750   -5.4880 N.pl3   7  ARG7       -0.3944
     61 NH2        -9.8900    4.6100   -4.9190 N.pl3   7  ARG7       -0.2942
     62 N          -3.0050    3.6450   -3.6180 N.am    8  THR8       -0.3003
     63 CA         -1.9450    4.4230   -4.2590 C.3     8  THR8        0.1252
     64 C          -2.5040    5.1830   -5.4500 C.2     8  THR8        0.2365
     65 O          -2.9360    4.5870   -6.4350 O.2     8  THR8       -0.2737
     66 CB         -0.8090    3.5210   -4.7470 C.3     8  THR8        0.0792
     67 OG1        -0.4960    2.5490   -3.7530 O.3     8  THR8       -0.3897
     68 CG2         0.4300    4.3270   -5.0690 C.3     8  THR8       -0.0367
     69 N          -2.4890    6.5210   -5.3380 N.am    9  THR9       -0.3033
     70 CA         -2.9940    7.3790   -6.4030 C.3     9  THR9        0.0882
     71 C          -1.9660    8.4620   -6.7340 C.2     9  THR9        0.0644
     72 OXT        -1.7240    9.3260   -5.8970 O.co2   9  THR9       -0.5478
     73 CB         -4.3290    8.0260   -5.9990 C.3     9  THR9        0.0759
     74 OG1        -4.4940    7.9220   -4.5890 O.3     9  THR9       -0.3899
     75 CG2        -5.5040    7.3560   -6.6870 C.3     9  THR9       -0.0368
     76 O          -1.3590    8.4220   -7.8440 O.co2   9  THR9       -0.5478
     77 H          12.1828   -8.3486    1.7510 H       1  LEU1        0.2094
     78 H          11.2288   -8.7201    0.4371 H       1  LEU1        0.2094
     79 H          10.6277   -8.8995    1.9801 H       1  LEU1        0.2094
     80 H          10.9278   -7.8225    0.5549 H       1  LEU1        0.2094
     81 H          10.7216   -6.5582    2.3460 H       1  LEU1        0.0977
     82 H          12.6714   -6.4125    0.6624 H       1  LEU1        0.0329
     83 H          11.3392   -6.1804   -0.5079 H       1  LEU1        0.0329
     84 H          11.6360   -4.4782    1.8847 H       1  LEU1        0.0298
     85 H          12.7954   -3.9779   -0.8448 H       1  LEU1        0.0232
     86 H          13.7146   -4.3116    0.6032 H       1  LEU1        0.0232
     87 H          12.7852   -2.8372    0.4787 H       1  LEU1        0.0232
     88 H          10.2692   -4.0251   -0.7411 H       1  LEU1        0.0232
     89 H          10.3120   -2.9051    0.5993 H       1  LEU1        0.0232
     90 H           9.4853   -4.4354    0.7656 H       1  LEU1        0.0232
     91 H           8.5449   -6.4921    2.6069 H       2  LEU2        0.1496
     92 H           6.8783   -6.7307    0.1906 H       2  LEU2        0.0595
     93 H           5.0736   -7.4535    1.7486 H       2  LEU2        0.0290
     94 H           6.3526   -7.5762    2.9887 H       2  LEU2        0.0290
     95 H           6.6556   -9.0616    0.4708 H       2  LEU2        0.0296
     96 H           7.4329   -9.6291    3.3126 H       2  LEU2        0.0232
     97 H           8.4827   -8.9774    2.0772 H       2  LEU2        0.0232
     98 H           7.8567  -10.6015    1.9241 H       2  LEU2        0.0232
     99 H           4.9866   -9.9900    2.7947 H       2  LEU2        0.0232
    100 H           5.4496  -10.9662    1.4215 H       2  LEU2        0.0232
    101 H           4.3835   -9.5993    1.2019 H       2  LEU2        0.0232
    102 H           6.4372   -4.6862   -0.3657 H       3  HIS3        0.1495
    103 H           5.2857   -2.9052    1.6933 H       3  HIS3        0.0598
    104 H           6.9460   -2.0019   -0.6290 H       3  HIS3        0.0351
    105 H           7.5658   -2.2375    1.0102 H       3  HIS3        0.0351
    106 H           5.4210    0.0628   -1.0123 H       3  HIS3        0.1665
    107 H           6.8403   -0.2957    2.8259 H       3  HIS3        0.0848
    108 H           4.9410    2.2170    0.1576 H       3  HIS3        0.1027
    109 H           3.2336   -3.5530    1.1388 H       4  LEU4        0.1495
    110 H           2.3351   -2.6668   -1.5233 H       4  LEU4        0.0595
    111 H           2.2753   -5.1134   -1.3004 H       4  LEU4        0.0290
    112 H           1.1589   -4.8873    0.0804 H       4  LEU4        0.0290
    113 H          -0.4180   -3.8261   -1.4521 H       4  LEU4        0.0296
    114 H           1.3994   -4.9209   -3.5872 H       4  LEU4        0.0232
    115 H           1.1394   -3.2272   -3.2450 H       4  LEU4        0.0232
    116 H          -0.1715   -4.2057   -3.8592 H       4  LEU4        0.0232
    117 H           0.3478   -6.6650   -2.1390 H       4  LEU4        0.0232
    118 H          -1.2164   -5.9419   -2.4278 H       4  LEU4        0.0232
    119 H          -0.6558   -6.1867   -0.7911 H       4  LEU4        0.0232
    120 H          -0.0826   -0.1045    1.3754 H       5  PRO5        0.0597
    121 H          -0.4452    1.9514   -0.4036 H       5  PRO5        0.0288
    122 H           0.9892    1.8600    0.5270 H       5  PRO5        0.0288
    123 H           0.5097    0.9957   -2.2973 H       5  PRO5        0.0281
    124 H           1.8945    1.7993   -1.6662 H       5  PRO5        0.0281
    125 H           2.8090   -0.1829   -0.8369 H       5  PRO5        0.0465
    126 H           1.9398   -0.8610   -2.1390 H       5  PRO5        0.0465
    127 H          -2.2042    0.2918    1.5947 H       6  LYS6        0.1495
    128 H          -3.8752   -1.4038    0.0304 H       6  LYS6        0.0594
    129 H          -5.7121   -0.4343    1.3624 H       6  LYS6        0.0288
    130 H          -4.5277    0.7006    2.0441 H       6  LYS6        0.0288
    131 H          -4.8110   -0.9758    3.6284 H       6  LYS6        0.0268
    132 H          -3.2673   -1.2686    2.8234 H       6  LYS6        0.0268
    133 H          -4.4954   -2.8845    1.3453 H       6  LYS6        0.0318
    134 H          -4.2916   -3.3567    3.0377 H       6  LYS6        0.0318
    135 H          -6.5701   -2.6141    3.4976 H       6  LYS6        0.0841
    136 H          -6.7652   -2.2535    1.7813 H       6  LYS6        0.0841
    137 H          -6.2293   -4.8900    2.9189 H       6  LYS6        0.2091
    138 H          -6.3970   -4.5404    1.2990 H       6  LYS6        0.2091
    139 H          -7.6938   -4.3597    2.3285 H       6  LYS6        0.2091
    140 H          -6.1250   -4.7896    2.9249 H       6  LYS6        0.2091
    141 H          -3.1236    2.0007   -0.1286 H       7  ARG7        0.1495
    142 H          -4.6948    2.2063   -2.5950 H       7  ARG7        0.0594
    143 H          -6.0754    3.0190   -0.6936 H       7  ARG7        0.0289
    144 H          -4.8255    4.2648   -0.4466 H       7  ARG7        0.0289
    145 H          -6.7151    5.1638   -1.6221 H       7  ARG7        0.0296
    146 H          -5.2576    5.1436   -2.6183 H       7  ARG7        0.0296
    147 H          -6.1268    3.7213   -4.0990 H       7  ARG7        0.0655
    148 H          -6.9563    2.7932   -2.8376 H       7  ARG7        0.0655
    149 H          -8.3818    5.0928   -3.0247 H       7  ARG7        0.2577
    150 H          -8.8504    2.8214   -6.2723 H       7  ARG7        0.2155
    151 H          -7.4529    2.6264   -5.3148 H       7  ARG7        0.2155
    152 H          -8.2694    3.8005   -6.1522 H       7  ARG7        0.2155
    153 H         -10.4144    4.3430   -5.7082 H       7  ARG7        0.2545
    154 H         -10.2248    5.3175   -4.3219 H       7  ARG7        0.2545
    155 H          -3.6667    3.1821   -4.1811 H       8  THR8        0.1496
    156 H          -1.5605    5.1048   -3.5295 H       8  THR8        0.0621
    157 H          -1.1384    3.0320   -5.6399 H       8  THR8        0.0614
    158 H          -0.1980    2.9965   -2.9457 H       8  THR8        0.2099
    159 H           0.7725    4.8231   -4.1850 H       8  THR8        0.0255
    160 H           0.1976    5.0542   -5.8187 H       8  THR8        0.0255
    161 H           1.1963    3.6738   -5.4311 H       8  THR8        0.0255
    162 H          -2.1291    6.9316   -4.5188 H       9  THR9        0.1495
    163 H          -3.1618    6.7756   -7.2705 H       9  THR9        0.0586
    164 H          -4.3049    9.0525   -6.3002 H       9  THR9        0.0613
    165 H          -4.5137    6.9864   -4.3339 H       9  THR9        0.2099
    166 H          -5.5463    6.3264   -6.3988 H       9  THR9        0.0255
    167 H          -5.3826    7.4247   -7.7479 H       9  THR9        0.0255
    168 H          -6.4115    7.8445   -6.3995 H       9  THR9        0.0255
@<TRIPOS>UNITY_ATOM_ATTR
1 1
charge 1
50 1
charge 1
60 1
charge 1
72 1
charge -1
@<TRIPOS>BOND
     1    76    71   ar
     2    71    70    1
     3    71    72   ar
     4    75    73    1
     5    65    64    2
     6    70    73    1
     7    70    69    1
     8    73    74    1
     9    60    59    2
    10    64    69   am
    11    64    63    1
    12    68    66    1
    13    61    59    1
    14    66    63    1
    15    66    67    1
    16    59    58    1
    17    63    62    1
    18    62    53   am
    19    58    57    1
    20    33    32    1
    21    57    56    1
    22    53    52    1
    23    53    54    2
    24    56    55    1
    25    32    34    1
    26    32    31    1
    27    52    55    1
    28    52    51    1
    29    45    44    2
    30    40    41    1
    31    40    39    1
    32    20    19    2
    33    38    37    2
    34    41    35    1
    35    31    28    1
    36    51    44   am
    37    44    43    1
    38    28    29    1
    39    28    27    1
    40     4     3    2
    41    35    29   am
    42    35    36    1
    43    19    27   am
    44    19    18    1
    45    39    36    1
    46    37    36    1
    47    37    42   am
    48    23    25   ar
    49    23    22   ar
    50    29    30    2
    51     7     6    1
    52     8     6    1
    53    43    42    1
    54    43    46    1
    55    21    18    1
    56    21    22    1
    57     5     6    1
    58     5     2    1
    59    17    18    1
    60    17    11   am
    61    25    26   ar
    62    22    24   ar
    63     3     2    1
    64     3     9   am
    65    10    11    1
    66    10     9    1
    67    10    13    1
    68     2     1    1
    69    14    16    1
    70    14    13    1
    71    14    15    1
    72    11    12    2
    73    46    47    1
    74    26    24   ar
    75    50    49    1
    76    48    49    1
    77    48    47    1
    78     1    77    1
    79     1    78    1
    80     1    79    1
    81     1    80    1
    82     2    81    1
    83     5    82    1
    84     5    83    1
    85     6    84    1
    86     7    85    1
    87     7    86    1
    88     7    87    1
    89     8    88    1
    90     8    89    1
    91     8    90    1
    92     9    91    1
    93    10    92    1
    94    13    93    1
    95    13    94    1
    96    14    95    1
    97    15    96    1
    98    15    97    1
    99    15    98    1
   100    16    99    1
   101    16   100    1
   102    16   101    1
   103    17   102    1
   104    18   103    1
   105    21   104    1
   106    21   105    1
   107    23   106    1
   108    24   107    1
   109    25   108    1
   110    27   109    1
   111    28   110    1
   112    31   111    1
   113    31   112    1
   114    32   113    1
   115    33   114    1
   116    33   115    1
   117    33   116    1
   118    34   117    1
   119    34   118    1
   120    34   119    1
   121    36   120    1
   122    39   121    1
   123    39   122    1
   124    40   123    1
   125    40   124    1
   126    41   125    1
   127    41   126    1
   128    42   127    1
   129    43   128    1
   130    46   129    1
   131    46   130    1
   132    47   131    1
   133    47   132    1
   134    48   133    1
   135    48   134    1
   136    49   135    1
   137    49   136    1
   138    50   137    1
   139    50   138    1
   140    50   139    1
   141    50   140    1
   142    51   141    1
   143    52   142    1
   144    55   143    1
   145    55   144    1
   146    56   145    1
   147    56   146    1
   148    57   147    1
   149    57   148    1
   150    58   149    1
   151    60   150    1
   152    60   151    1
   153    60   152    1
   154    61   153    1
   155    61   154    1
   156    62   155    1
   157    63   156    1
   158    66   157    1
   159    67   158    1
   160    68   159    1
   161    68   160    1
   162    68   161    1
   163    69   162    1
   164    70   163    1
   165    73   164    1
   166    74   165    1
   167    75   166    1
   168    75   167    1
   169    75   168    1
