@<TRIPOS>MOLECULE
/mnt/hpc/home/25menglei/25wenshaohua/MD/yzy/docking/dc/peptides/pdb/llhplrl.pdb
 139 138 0 0 0
SMALL
GASTEIGER

@<TRIPOS>ATOM
      1 N          -0.8970    2.7590    0.7130 N.4     1  UNL1        0.2099
      2 C           0.4810    3.0470    0.3460 C.3     2  UNL2        0.0242
      3 C           1.4540    2.4210    1.3370 C.2     2  UNL2        0.2136
      4 O           2.5890    2.1070    0.9800 O.2     2  UNL2       -0.2758
      5 C           0.7160    4.5440    0.2770 C.3     2  UNL2       -0.0424
      6 C          -0.0640    5.2650   -0.8060 C.3     2  UNL2       -0.0463
      7 C           0.1240    6.7740   -0.6790 C.3     2  UNL2       -0.0627
      8 C           0.3610    4.7880   -2.1880 C.3     2  UNL2       -0.0627
      9 N           1.0420    2.2740    2.5650 N.am    2  UNL2       -0.3040
     10 C           1.8700    1.6400    3.5810 C.3     2  UNL2        0.0996
     11 C           1.8350    0.1250    3.4860 C.2     2  UNL2        0.2340
     12 O           2.7420   -0.5530    3.9660 O.2     2  UNL2       -0.2738
     13 C           1.4520    2.0840    4.9770 C.3     2  UNL2       -0.0236
     14 C           1.6480    3.5630    5.2990 C.3     2  UNL2       -0.0446
     15 C           1.0230    3.8780    6.6560 C.3     2  UNL2       -0.0626
     16 C           3.1240    3.9210    5.2960 C.3     2  UNL2       -0.0626
     17 N           0.7970   -0.3750    2.8720 N.am    2  UNL2       -0.3021
     18 C           0.6250   -1.8060    2.6890 C.3     2  UNL2        0.1050
     19 C           0.1340   -2.0120    1.2580 C.2     2  UNL2        0.2369
     20 O          -1.0060   -1.6650    0.9510 O.2     2  UNL2       -0.2735
     21 C          -0.4110   -2.3340    3.6760 C.3     2  UNL2        0.0160
     22 C          -0.0430   -2.1030    5.1030 C.ar    2  UNL2        0.0375
     23 N           0.8800   -2.8800    5.7900 N.ar    2  UNL2       -0.3481
     24 C          -0.4620   -1.1620    5.9960 C.ar    2  UNL2        0.0485
     25 C           1.0050   -2.4310    7.0230 C.ar    2  UNL2        0.0935
     26 N           0.1980   -1.3880    7.1680 N.ar    2  UNL2       -0.2440
     27 N           0.9880   -2.5380    0.4100 N.am    2  UNL2       -0.2884
     28 C           0.6680   -2.6400   -1.0120 C.3     2  UNL2        0.1023
     29 C          -0.7170   -3.1440   -1.3790 C.2     2  UNL2        0.2342
     30 O          -1.3110   -2.6570   -2.3430 O.2     2  UNL2       -0.2738
     31 C           1.7670   -3.5710   -1.5340 C.3     2  UNL2       -0.0243
     32 C           2.9270   -3.2690   -0.6480 C.3     2  UNL2       -0.0350
     33 C           2.3140   -3.0850    0.7200 C.3     2  UNL2        0.0156
     34 N          -1.2510   -4.0870   -0.6430 N.am    2  UNL2       -0.3025
     35 C          -2.5610   -4.6450   -0.9420 C.3     2  UNL2        0.0996
     36 C          -3.7000   -3.7900   -0.4090 C.2     2  UNL2        0.2340
     37 O          -4.8470   -3.9890   -0.7910 O.2     2  UNL2       -0.2738
     38 C          -2.6670   -6.0570   -0.3780 C.3     2  UNL2       -0.0236
     39 C          -1.7370   -7.0990   -0.9940 C.3     2  UNL2       -0.0446
     40 C          -1.8580   -8.4070   -0.2280 C.3     2  UNL2       -0.0626
     41 C          -2.0790   -7.3010   -2.4640 C.3     2  UNL2       -0.0626
     42 N          -3.4040   -2.8380    0.4330 N.am    2  UNL2       -0.3025
     43 C          -4.4340   -2.0200    1.0660 C.3     2  UNL2        0.0995
     44 C          -4.2210   -0.5290    0.8820 C.2     2  UNL2        0.2334
     45 O          -5.1200    0.1740    0.4280 O.2     2  UNL2       -0.2738
     46 C          -4.5210   -2.3560    2.5500 C.3     2  UNL2       -0.0231
     47 C          -4.9230   -3.7930    2.8070 C.3     2  UNL2       -0.0201
     48 C          -4.9100   -4.1270    4.2930 C.3     2  UNL2        0.0645
     49 N          -5.3100   -5.5250    4.5170 N.pl3   2  UNL2       -0.2811
     50 C          -4.5070   -6.5530    4.3300 C.cat   2  UNL2        0.3114
     51 N          -3.2420   -6.3760    3.9640 N.pl3   2  UNL2       -0.3944
     52 N          -4.9650   -7.7720    4.5330 N.pl3   2  UNL2       -0.2942
     53 N          -3.0860   -0.1380    1.2340 N.am    2  UNL2       -0.3138
     54 C          -2.7750    1.2690    1.1780 C.3     2  UNL2        0.0119
     55 C          -1.3330    1.4670    0.7250 C.2     2  UNL2        0.0277
     56 O          -0.6180    0.4910    0.4570 O.co2   2  UNL2       -0.5534
     57 C          -2.9600    1.9020    2.5710 C.3     2  UNL2       -0.0350
     58 C          -4.3510    1.9130    3.1450 C.3     2  UNL2       -0.0453
     59 C          -4.3080    2.3640    4.5960 C.3     2  UNL2       -0.0626
     60 C          -5.2420    2.8490    2.3360 C.3     2  UNL2       -0.0626
     61 O          -0.9770    2.5230    0.5850 O.co2   2  UNL2       -0.5534
     62 H           0.1230    2.7590    0.7130 H       1  UNL1        0.1975
     63 H          -1.2370    3.6913    0.9490 H       1  UNL1        0.1975
     64 H          -1.2370    2.0885    1.4023 H       1  UNL1        0.1975
     65 H          -1.2370    2.4973   -0.2124 H       1  UNL1        0.1975
     66 H           0.6337    2.6178   -0.6222 H       2  UNL2        0.0358
     67 H          -0.5223    2.8597    0.6672 H       2  UNL2        0.0358
     68 H           0.4423    4.9670    1.2210 H       2  UNL2        0.0272
     69 H           1.7508    4.6740    0.0378 H       2  UNL2        0.0272
     70 H          -1.1021    5.0381   -0.6808 H       2  UNL2        0.0296
     71 H           1.1589    7.0161   -0.8022 H       2  UNL2        0.0232
     72 H          -0.2046    7.0943    0.2876 H       2  UNL2        0.0232
     73 H          -0.4505    7.2697   -1.4334 H       2  UNL2        0.0232
     74 H           1.3982    5.0046   -2.3367 H       2  UNL2        0.0232
     75 H          -0.2189    5.2915   -2.9331 H       2  UNL2        0.0232
     76 H           0.2023    3.7327   -2.2655 H       2  UNL2        0.0232
     77 H           0.1467    2.6005    2.8121 H       2  UNL2        0.1494
     78 H           2.8765    1.9547    3.3997 H       2  UNL2        0.0594
     79 H           2.0211    1.5174    5.6841 H       2  UNL2        0.0290
     80 H           0.3963    1.9168    5.0273 H       2  UNL2        0.0290
     81 H           1.1645    4.1500    4.5463 H       2  UNL2        0.0296
     82 H           1.5023    3.2939    7.4136 H       2  UNL2        0.0232
     83 H          -0.0206    3.6429    6.6312 H       2  UNL2        0.0232
     84 H           1.1493    4.9179    6.8741 H       2  UNL2        0.0232
     85 H           3.6319    3.3462    6.0420 H       2  UNL2        0.0232
     86 H           3.2387    4.9632    5.5094 H       2  UNL2        0.0232
     87 H           3.5413    3.7058    4.3345 H       2  UNL2        0.0232
     88 H           0.1094    0.2366    2.5221 H       2  UNL2        0.1495
     89 H           1.5423   -2.3298    2.8596 H       2  UNL2        0.0598
     90 H          -0.5215   -3.3869    3.5206 H       2  UNL2        0.0351
     91 H          -1.3204   -1.8002    3.4944 H       2  UNL2        0.0351
     92 H           1.3667   -3.6487    5.4138 H       2  UNL2        0.1665
     93 H          -1.1520   -0.4156    5.8179 H       2  UNL2        0.0848
     94 H           1.6237   -2.8231    7.7500 H       2  UNL2        0.1027
     95 H           0.6405   -1.6644   -1.4505 H       2  UNL2        0.0597
     96 H           1.9991   -3.3538   -2.5557 H       2  UNL2        0.0288
     97 H           1.4841   -4.6027   -1.5139 H       2  UNL2        0.0288
     98 H           3.4230   -2.3752   -0.9644 H       2  UNL2        0.0281
     99 H           3.6659   -4.0427   -0.6641 H       2  UNL2        0.0281
    100 H           2.8858   -2.3992    1.3097 H       2  UNL2        0.0465
    101 H           2.2769   -3.9879    1.2930 H       2  UNL2        0.0465
    102 H          -0.7519   -4.4277    0.1342 H       2  UNL2        0.1495
    103 H          -2.6552   -4.6673   -2.0076 H       2  UNL2        0.0594
    104 H          -2.4538   -6.0073    0.6694 H       2  UNL2        0.0290
    105 H          -3.6588   -6.3848   -0.6099 H       2  UNL2        0.0290
    106 H          -0.7257   -6.7555   -0.9297 H       2  UNL2        0.0296
    107 H          -2.8660   -8.7616   -0.2846 H       2  UNL2        0.0232
    108 H          -1.5935   -8.2463    0.7963 H       2  UNL2        0.0232
    109 H          -1.1997   -9.1335   -0.6566 H       2  UNL2        0.0232
    110 H          -3.0884   -7.6452   -2.5513 H       2  UNL2        0.0232
    111 H          -1.4168   -8.0268   -2.8878 H       2  UNL2        0.0232
    112 H          -1.9722   -6.3730   -2.9858 H       2  UNL2        0.0232
    113 H          -2.4586   -2.6665    0.6475 H       2  UNL2        0.1495
    114 H          -5.3559   -2.2558    0.5766 H       2  UNL2        0.0594
    115 H          -5.2456   -1.7126    3.0037 H       2  UNL2        0.0289
    116 H          -3.5462   -2.2159    2.9683 H       2  UNL2        0.0289
    117 H          -4.2377   -4.4402    2.3006 H       2  UNL2        0.0296
    118 H          -5.9204   -3.9292    2.4443 H       2  UNL2        0.0296
    119 H          -5.5925   -3.4805    4.8040 H       2  UNL2        0.0655
    120 H          -3.9169   -3.9899    4.6670 H       2  UNL2        0.0655
    121 H          -6.2286   -5.7023    4.8236 H       2  UNL2        0.2577
    122 H          -2.8963   -5.4669    3.8114 H       2  UNL2        0.2155
    123 H          -2.6504   -7.1539    3.8454 H       2  UNL2        0.2155
    124 H          -3.6817   -6.8220    3.2044 H       2  UNL2        0.2155
    125 H          -4.3753   -8.5485    4.3968 H       2  UNL2        0.2545
    126 H          -5.8969   -7.9061    4.8208 H       2  UNL2        0.2545
    127 H          -2.4120   -0.7842    1.5460 H       2  UNL2        0.1487
    128 H          -3.4285    1.7495    0.4802 H       2  UNL2        0.0462
    129 H          -1.7590    1.3935    0.8662 H       2  UNL2        0.0462
    130 H          -2.2852    1.3044    1.0881 H       2  UNL2        0.0792
    131 H          -2.6300    2.9179    2.5088 H       2  UNL2        0.0283
    132 H          -2.3947    1.2796    3.2328 H       2  UNL2        0.0283
    133 H          -4.7545    0.9231    3.0984 H       2  UNL2        0.0296
    134 H          -3.9052    3.3538    4.6501 H       2  UNL2        0.0232
    135 H          -3.6899    1.6962    5.1589 H       2  UNL2        0.0232
    136 H          -5.2986    2.3595    5.0004 H       2  UNL2        0.0232
    137 H          -4.8460    3.8422    2.3768 H       2  UNL2        0.0232
    138 H          -6.2307    2.8422    2.7449 H       2  UNL2        0.0232
    139 H          -5.2746    2.5195    1.3185 H       2  UNL2        0.0232
@<TRIPOS>UNITY_ATOM_ATTR
1 1
charge 1
51 1
charge 1
61 1
charge -1
@<TRIPOS>BOND
     1    41    39    1
     2    30    29    2
     3     8     6    1
     4    31    28    1
     5    31    32    1
     6    29    28    1
     7    29    34   am
     8    28    27    1
     9    39    38    1
    10    39    40    1
    11    35    34    1
    12    35    36    1
    13    35    38    1
    14     6     7    1
    15     6     5    1
    16    37    36    2
    17    32    33    1
    18    36    42   am
    19     5     2    1
    20     2     3    1
    21    27    33    1
    22    27    19   am
    23    45    44    2
    24    42    43    1
    25    56    55   ar
    26    61    55   ar
    27    44    43    1
    28    44    53   am
    29    20    19    2
    30     4     3    2
    31    43    46    1
    32    54    53    1
    33    54    57    1
    34    19    18    1
    35     3     9   am
    36    60    58    1
    37    46    47    1
    38     9    10    1
    39    57    58    1
    40    18    17    1
    41    18    21    1
    42    47    48    1
    43    17    11   am
    44    58    59    1
    45    11    10    1
    46    11    12    2
    47    10    13    1
    48    21    22    1
    49    51    50    2
    50    48    49    1
    51    50    49    1
    52    50    52    1
    53    13    14    1
    54    22    23   ar
    55    22    24   ar
    56    16    14    1
    57    14    15    1
    58    23    25   ar
    59    24    26   ar
    60    25    26   ar
    61     1    62    1
    62     1    63    1
    63     1    64    1
    64     1    65    1
    65     2    66    1
    66     2    67    1
    67     5    68    1
    68     5    69    1
    69     6    70    1
    70     7    71    1
    71     7    72    1
    72     7    73    1
    73     8    74    1
    74     8    75    1
    75     8    76    1
    76     9    77    1
    77    10    78    1
    78    13    79    1
    79    13    80    1
    80    14    81    1
    81    15    82    1
    82    15    83    1
    83    15    84    1
    84    16    85    1
    85    16    86    1
    86    16    87    1
    87    17    88    1
    88    18    89    1
    89    21    90    1
    90    21    91    1
    91    23    92    1
    92    24    93    1
    93    25    94    1
    94    28    95    1
    95    31    96    1
    96    31    97    1
    97    32    98    1
    98    32    99    1
    99    33   100    1
   100    33   101    1
   101    34   102    1
   102    35   103    1
   103    38   104    1
   104    38   105    1
   105    39   106    1
   106    40   107    1
   107    40   108    1
   108    40   109    1
   109    41   110    1
   110    41   111    1
   111    41   112    1
   112    42   113    1
   113    43   114    1
   114    46   115    1
   115    46   116    1
   116    47   117    1
   117    47   118    1
   118    48   119    1
   119    48   120    1
   120    49   121    1
   121    51   122    1
   122    51   123    1
   123    51   124    1
   124    52   125    1
   125    52   126    1
   126    53   127    1
   127    54   128    1
   128    54   129    1
   129    55   130    1
   130    57   131    1
   131    57   132    1
   132    58   133    1
   133    59   134    1
   134    59   135    1
   135    59   136    1
   136    60   137    1
   137    60   138    1
   138    60   139    1
