@<TRIPOS>MOLECULE
/mnt/hpc/home/25menglei/25wenshaohua/MD/yzy/docking/dc/peptides/pdb/llhplrc.pdb
 128 129 0 0 0
SMALL
GASTEIGER

@<TRIPOS>ATOM
      1 N           2.0370    3.4760    9.2780 N.3     1  LEU1       -0.0183
      2 CA          1.5630    2.3170    8.4970 C.3     1  LEU1        0.0531
      3 C           1.2090    2.7380    7.0700 C.2     1  LEU1        0.2645
      4 O           0.0330    2.8370    6.7130 O.2     1  LEU1       -0.2695
      5 CB          0.3440    1.7080    9.1840 C.3     1  LEU1        0.0038
      6 CG          0.6470    1.0340   10.5250 C.3     1  LEU1       -0.0410
      7 CD2        -0.6510    0.7320   11.2580 C.3     1  LEU1       -0.0625
      8 CD1         1.4440   -0.2530   10.2920 C.3     1  LEU1       -0.0625
      9 N           2.2260    3.0030    6.2540 N.am    2  LEU2       -0.2993
     10 CA          2.0280    3.4160    4.8680 C.3     2  LEU2        0.0998
     11 C           2.5640    2.3390    3.9170 C.2     2  LEU2        0.2340
     12 O           3.7500    2.3360    3.5760 O.2     2  LEU2       -0.2738
     13 CB          2.7170    4.7560    4.6250 C.3     2  LEU2       -0.0236
     14 CG          2.1060    5.9480    5.3920 C.3     2  LEU2       -0.0446
     15 CD2         3.0760    7.1190    5.4070 C.3     2  LEU2       -0.0626
     16 CD1         0.7810    6.3560    4.7630 C.3     2  LEU2       -0.0626
     17 N           1.6970    1.4380    3.5200 N.am    3  HIS3       -0.3021
     18 CA          2.0850    0.3590    2.6070 C.3     3  HIS3        0.1050
     19 C           1.7100    0.6980    1.1650 C.2     3  HIS3        0.2369
     20 O           0.5970    1.1590    0.9050 O.2     3  HIS3       -0.2735
     21 CB          1.4080   -0.9500    3.0340 C.3     3  HIS3        0.0160
     22 CG          2.0370   -1.5590    4.2560 C.ar    3  HIS3        0.0375
     23 ND1         1.6030   -1.2830    5.5440 N.ar    3  HIS3       -0.3481
     24 CD2         3.0540   -2.4510    4.3940 C.ar    3  HIS3        0.0485
     25 CE1         2.3560   -1.9770    6.4000 C.ar    3  HIS3        0.0935
     26 NE2         3.2270   -2.6930    5.7360 N.ar    3  HIS3       -0.2440
     27 N           2.6460    0.4860    0.2440 N.am    4  PRO4       -0.2884
     28 CA          2.3730    0.7580   -1.1660 C.3     4  PRO4        0.1023
     29 C           1.4120   -0.2730   -1.7610 C.2     4  PRO4        0.2342
     30 O           1.4790   -1.4610   -1.4360 O.2     4  PRO4       -0.2738
     31 CB          3.7550    0.6540   -1.8060 C.3     4  PRO4       -0.0243
     32 CG          4.5090   -0.2800   -0.9100 C.3     4  PRO4       -0.0350
     33 CD          3.9890   -0.0230    0.4720 C.3     4  PRO4        0.0156
     34 N           0.5150    0.1860   -2.6140 N.am    5  LEU5       -0.3025
     35 CA         -0.4510   -0.6960   -3.2600 C.3     5  LEU5        0.0996
     36 C           0.2480   -1.7580   -4.1010 C.2     5  LEU5        0.2340
     37 O           1.2010   -1.4640   -4.8120 O.2     5  LEU5       -0.2738
     38 CB         -1.3960    0.1330   -4.1170 C.3     5  LEU5       -0.0236
     39 CG         -2.2940    1.0670   -3.3000 C.3     5  LEU5       -0.0446
     40 CD1        -2.9330    2.0950   -4.2090 C.3     5  LEU5       -0.0626
     41 CD2        -3.3650    0.2580   -2.5760 C.3     5  LEU5       -0.0626
     42 N          -0.2290   -2.9740   -4.0170 N.am    6  ARG6       -0.3025
     43 CA          0.3460   -4.0890   -4.7820 C.3     6  ARG6        0.0995
     44 C          -0.3880   -4.2750   -6.1070 C.2     6  ARG6        0.2339
     45 O          -1.6030   -4.4420   -6.1290 O.2     6  ARG6       -0.2738
     46 CB          0.2640   -5.3780   -3.9610 C.3     6  ARG6       -0.0231
     47 CG          1.3800   -5.4720   -2.9400 C.3     6  ARG6       -0.0201
     48 CD          1.3240   -6.7990   -2.1960 C.3     6  ARG6        0.0645
     49 NE          2.5100   -7.0240   -1.3780 N.pl3   6  ARG6       -0.2811
     50 CZ          2.6960   -8.0850   -0.6030 C.cat   6  ARG6        0.3114
     51 NH1         1.7670   -9.0260   -0.5250 N.pl3   6  ARG6       -0.3944
     52 NH2         3.8060   -8.2110    0.1000 N.pl3   6  ARG6       -0.2942
     53 N           0.3880   -4.2460   -7.1750 N.am    7  CYS7       -0.3050
     54 CA         -0.1780   -4.4300   -8.5080 C.3     7  CYS7        0.0713
     55 C          -0.3850   -5.9250   -8.8040 C.2     7  CYS7        0.0627
     56 OXT        -1.2780   -6.5320   -8.2120 O.co2   7  CYS7       -0.5479
     57 CB          0.7240   -3.7820   -9.5630 C.3     7  CYS7        0.0144
     58 SG          0.9480   -2.0030   -9.3370 S.3     7  CYS7       -0.1761
     59 O           0.3470   -6.5150   -9.6000 O.co2   7  CYS7       -0.5479
     60 H           2.8519    3.8842    8.8201 H       1  LEU1        0.2094
     61 H           2.2919    3.1716   10.2175 H       1  LEU1        0.2094
     62 H           1.2948    4.1732    9.3362 H       1  LEU1        0.2094
     63 H           1.9221    4.1788   10.0083 H       1  LEU1        0.2094
     64 H           2.3445    1.5879    8.4460 H       1  LEU1        0.0977
     65 H          -0.0786    0.9753    8.5287 H       1  LEU1        0.0329
     66 H          -0.3258    2.5161    9.3919 H       1  LEU1        0.0329
     67 H           1.2335    1.6952   11.1281 H       1  LEU1        0.0298
     68 H          -1.2492    0.0708   10.6664 H       1  LEU1        0.0232
     69 H          -1.1862    1.6432   11.4258 H       1  LEU1        0.0232
     70 H          -0.4308    0.2695   12.1974 H       1  LEU1        0.0232
     71 H           0.8688   -0.9245    9.6894 H       1  LEU1        0.0232
     72 H           1.6599   -0.7141   11.2331 H       1  LEU1        0.0232
     73 H           2.3600   -0.0195    9.7907 H       1  LEU1        0.0232
     74 H           3.1448    2.9175    6.5972 H       2  LEU2        0.1496
     75 H           0.9818    3.5358    4.6780 H       2  LEU2        0.0595
     76 H           2.6647    4.9720    3.5783 H       2  LEU2        0.0290
     77 H           3.7189    4.6486    4.9850 H       2  LEU2        0.0290
     78 H           1.9225    5.6495    6.4030 H       2  LEU2        0.0296
     79 H           3.2723    7.4324    4.4029 H       2  LEU2        0.0232
     80 H           3.9914    6.8179    5.8721 H       2  LEU2        0.0232
     81 H           2.6468    7.9306    5.9566 H       2  LEU2        0.0232
     82 H           0.9452    6.6582    3.7498 H       2  LEU2        0.0232
     83 H           0.3603    7.1707    5.3145 H       2  LEU2        0.0232
     84 H           0.1062    5.5258    4.7827 H       2  LEU2        0.0232
     85 H           0.7678    1.4876    3.8415 H       3  HIS3        0.1495
     86 H           3.1475    0.2419    2.6545 H       3  HIS3        0.0598
     87 H           1.4786   -1.6502    2.2280 H       3  HIS3        0.0351
     88 H           0.3903   -0.7231    3.2744 H       3  HIS3        0.0351
     89 H           0.8649   -0.6780    5.7858 H       3  HIS3        0.1665
     90 H           3.6000   -2.8722    3.6262 H       3  HIS3        0.0848
     91 H           2.2652   -1.9527    7.4277 H       3  HIS3        0.1027
     92 H           1.8999    1.7044   -1.3255 H       4  PRO4        0.0597
     93 H           4.2299    1.6123   -1.8402 H       4  PRO4        0.0288
     94 H           3.7121    0.3052   -2.8166 H       4  PRO4        0.0288
     95 H           5.5585   -0.0770   -0.9576 H       4  PRO4        0.0281
     96 H           4.3737   -1.3011   -1.1997 H       4  PRO4        0.0281
     97 H           4.5914    0.7023    0.9779 H       4  PRO4        0.0465
     98 H           4.0028   -0.8963    1.0901 H       4  PRO4        0.0465
     99 H           0.4975    1.1486   -2.8195 H       5  LEU5        0.1495
    100 H          -1.0124   -1.2049   -2.5045 H       5  LEU5        0.0594
    101 H          -0.8123    0.7259   -4.7898 H       5  LEU5        0.0290
    102 H          -2.0369   -0.5505   -4.6337 H       5  LEU5        0.0290
    103 H          -1.6990    1.5768   -2.5713 H       5  LEU5        0.0296
    104 H          -3.5318    1.5984   -4.9437 H       5  LEU5        0.0232
    105 H          -2.1691    2.6638   -4.6966 H       5  LEU5        0.0232
    106 H          -3.5498    2.7494   -3.6292 H       5  LEU5        0.0232
    107 H          -3.9683   -0.2578   -3.2935 H       5  LEU5        0.0232
    108 H          -3.9808    0.9165   -1.9998 H       5  LEU5        0.0232
    109 H          -2.8974   -0.4524   -1.9267 H       5  LEU5        0.0232
    110 H          -0.9955   -3.1466   -3.4238 H       6  ARG6        0.1495
    111 H           1.3705   -3.8618   -4.9910 H       6  ARG6        0.0594
    112 H           0.3310   -6.2150   -4.6242 H       6  ARG6        0.0289
    113 H          -0.6672   -5.3758   -3.4339 H       6  ARG6        0.0289
    114 H           1.2802   -4.6715   -2.2370 H       6  ARG6        0.0296
    115 H           2.3178   -5.4054   -3.4509 H       6  ARG6        0.0296
    116 H           1.2433   -7.5913   -2.9106 H       6  ARG6        0.0655
    117 H           0.4760   -6.7738   -1.5440 H       6  ARG6        0.0655
    118 H           3.2205   -6.3430   -1.4023 H       6  ARG6        0.2577
    119 H           0.9356   -8.9413   -1.0454 H       6  ARG6        0.2155
    120 H           1.9079   -9.8101    0.0534 H       6  ARG6        0.2155
    121 H           2.4461   -8.7858    0.1461 H       6  ARG6        0.2155
    122 H           4.5025   -7.5171    0.0489 H       6  ARG6        0.2545
    123 H           3.9374   -8.9989    0.6755 H       6  ARG6        0.2545
    124 H           1.3560   -4.0991   -7.0715 H       7  CYS7        0.1494
    125 H          -1.1336   -3.9500   -8.5443 H       7  CYS7        0.0568
    126 H           1.6847   -4.2512   -9.5198 H       7  CYS7        0.0396
    127 H           0.2442   -3.9181  -10.5096 H       7  CYS7        0.0396
    128 H           1.5569   -1.7708   -8.1433 H       7  CYS7        0.1017
@<TRIPOS>UNITY_ATOM_ATTR
1 1
charge 1
51 1
charge 1
56 1
charge -1
@<TRIPOS>BOND
     1    59    55   ar
     2    57    58    1
     3    57    54    1
     4    55    54    1
     5    55    56   ar
     6    54    53    1
     7    53    44   am
     8    45    44    2
     9    44    43    1
    10    37    36    2
    11    43    42    1
    12    43    46    1
    13    40    39    1
    14    38    39    1
    15    38    35    1
    16    36    42   am
    17    36    35    1
    18    46    47    1
    19    39    41    1
    20    35    34    1
    21    47    48    1
    22    34    29   am
    23    48    49    1
    24    31    28    1
    25    31    32    1
    26    29    30    2
    27    29    28    1
    28    49    50    1
    29    28    27    1
    30    32    33    1
    31    50    51    2
    32    50    52    1
    33    27    33    1
    34    27    19   am
    35    20    19    2
    36    19    18    1
    37    18    21    1
    38    18    17    1
    39    21    22    1
    40    17    11   am
    41    12    11    2
    42    11    10    1
    43    22    24   ar
    44    22    23   ar
    45    24    26   ar
    46    13    10    1
    47    13    14    1
    48    16    14    1
    49    10     9    1
    50    14    15    1
    51    23    25   ar
    52    26    25   ar
    53     9     3   am
    54     4     3    2
    55     3     2    1
    56     2     5    1
    57     2     1    1
    58     5     6    1
    59     8     6    1
    60     6     7    1
    61     1    60    1
    62     1    61    1
    63     1    62    1
    64     1    63    1
    65     2    64    1
    66     5    65    1
    67     5    66    1
    68     6    67    1
    69     7    68    1
    70     7    69    1
    71     7    70    1
    72     8    71    1
    73     8    72    1
    74     8    73    1
    75     9    74    1
    76    10    75    1
    77    13    76    1
    78    13    77    1
    79    14    78    1
    80    15    79    1
    81    15    80    1
    82    15    81    1
    83    16    82    1
    84    16    83    1
    85    16    84    1
    86    17    85    1
    87    18    86    1
    88    21    87    1
    89    21    88    1
    90    23    89    1
    91    24    90    1
    92    25    91    1
    93    28    92    1
    94    31    93    1
    95    31    94    1
    96    32    95    1
    97    32    96    1
    98    33    97    1
    99    33    98    1
   100    34    99    1
   101    35   100    1
   102    38   101    1
   103    38   102    1
   104    39   103    1
   105    40   104    1
   106    40   105    1
   107    40   106    1
   108    41   107    1
   109    41   108    1
   110    41   109    1
   111    42   110    1
   112    43   111    1
   113    46   112    1
   114    46   113    1
   115    47   114    1
   116    47   115    1
   117    48   116    1
   118    48   117    1
   119    49   118    1
   120    51   119    1
   121    51   120    1
   122    51   121    1
   123    52   122    1
   124    52   123    1
   125    53   124    1
   126    54   125    1
   127    57   126    1
   128    57   127    1
   129    58   128    1
