@<TRIPOS>MOLECULE
/mnt/hpc/home/25menglei/25wenshaohua/MD/yzy/docking/dc/peptides/pdb/wllvhlkk.pdb
 172 175 0 0 0
SMALL
GASTEIGER

@<TRIPOS>ATOM
      1 N          -5.6630    2.4770   -1.5800 N.3     0  UNK0       -0.0195
      2 C          -4.7830    1.8660   -2.5760 C.3     0  UNK0        0.0481
      3 C          -4.1970    0.5590   -2.0310 C.3     0  UNK0        0.1490
      4 O          -4.5890    0.0940   -0.9620 O.3     0  UNK0       -0.2396
      5 C          -3.6670    2.8240   -2.9420 C.3     0  UNK0        0.0090
      6 C          -3.0780    2.5690   -4.2980 C.3     0  UNK0        0.0068
      7 C          -3.2270    1.4830   -5.0930 C.3     0  UNK0        0.0162
      8 C          -2.1980    3.4590   -5.0270 C.ar    0  UNK0       -0.0218
      9 N          -2.5070    1.6030   -6.2600 N.pl3   0  UNK0       -0.3430
     10 C          -1.8630    2.8260   -6.2450 C.ar    0  UNK0        0.0307
     11 C          -1.6730    4.7240   -4.7550 C.ar    0  UNK0       -0.0565
     12 C          -1.0230    3.4180   -7.1810 C.ar    0  UNK0       -0.0406
     13 C          -0.8420    5.3120   -5.6770 C.ar    0  UNK0       -0.0614
     14 C          -0.5180    4.6730   -6.8810 C.ar    0  UNK0       -0.0600
     15 N          -3.3240   -0.0420   -2.7830 N.4     1  LEU1        0.2632
     16 CA         -2.7350   -1.3160   -2.3820 C.3     1  LEU1        0.0579
     17 C          -1.2060   -1.2730   -2.3940 C.2     1  LEU1        0.2619
     18 O          -0.5510   -1.8610   -1.5390 O.2     1  LEU1       -0.2696
     19 CB         -3.2480   -2.4160   -3.3220 C.3     1  LEU1        0.0014
     20 CG         -3.2150   -2.0210   -4.8120 C.3     1  LEU1       -0.0412
     21 CD1        -2.0560   -2.7020   -5.5200 C.3     1  LEU1       -0.0625
     22 CD2        -4.5290   -2.3790   -5.4800 C.3     1  LEU1       -0.0625
     23 N          -0.6340   -0.5810   -3.3710 N.am    2  LEU2       -0.2994
     24 CA          0.8220   -0.4870   -3.4470 C.3     2  LEU2        0.0998
     25 C           1.3680    0.4690   -2.3880 C.2     2  LEU2        0.2340
     26 O           2.3730    0.1780   -1.7400 O.2     2  LEU2       -0.2738
     27 CB          1.2380   -0.0160   -4.8430 C.3     2  LEU2       -0.0236
     28 CG          0.7510   -0.9130   -5.9980 C.3     2  LEU2       -0.0446
     29 CD2        -0.5470   -0.3770   -6.5690 C.3     2  LEU2       -0.0626
     30 CD1         1.8120   -0.9960   -7.0850 C.3     2  LEU2       -0.0626
     31 N           0.7060    1.5670   -2.2240 N.am    3  VAL3       -0.3022
     32 CA          1.1500    2.5640   -1.2630 C.3     3  VAL3        0.1017
     33 C           0.7130    2.2200    0.1610 C.2     3  VAL3        0.2342
     34 O           1.0880    2.8950    1.1100 O.2     3  VAL3       -0.2738
     35 CB          0.6050    3.9320   -1.6740 C.3     3  VAL3       -0.0197
     36 CG1        -0.8580    4.0390   -1.3230 C.3     3  VAL3       -0.0605
     37 CG2         1.4270    5.0160   -1.0210 C.3     3  VAL3       -0.0605
     38 N          -0.0610    1.2030    0.3130 N.am    4  UNK4       -0.3023
     39 C          -0.5590    0.8140    1.6260 C.3     4  UNK4        0.1045
     40 C           0.5990    0.5380    2.5780 C.2     4  UNK4        0.2342
     41 O           0.5000    0.7650    3.7730 O.2     4  UNK4       -0.2738
     42 C          -1.4480   -0.4180    1.4950 C.3     4  UNK4        0.0185
     43 C          -2.8550   -0.0660    1.1480 C.3     4  UNK4       -0.0037
     44 N          -3.9000   -0.9600    1.2240 N.4     4  UNK4        0.2427
     45 C          -3.3950    1.1040    0.7080 C.3     4  UNK4        0.0728
     46 C          -5.0050   -0.3610    0.8600 C.3     4  UNK4        0.0472
     47 N          -4.7320    0.8960    0.5400 N.3     4  UNK4       -0.1359
     48 N           1.6970    0.0620    2.0510 N.am    5  LEU5       -0.3025
     49 CA          2.8740   -0.2300    2.8640 C.3     5  LEU5        0.0996
     50 C           3.6260    1.0560    3.1830 C.2     5  LEU5        0.2340
     51 O           4.3070    1.1490    4.1950 O.2     5  LEU5       -0.2738
     52 CB          3.7930   -1.1840    2.1000 C.3     5  LEU5       -0.0236
     53 CG          3.0830   -2.4310    1.5820 C.3     5  LEU5       -0.0446
     54 CD1         3.9870   -3.2060    0.6320 C.3     5  LEU5       -0.0626
     55 CD2         2.6760   -3.3110    2.7590 C.3     5  LEU5       -0.0626
     56 N           3.5240    2.0610    2.3290 N.am    6  LYS6       -0.3025
     57 CA          4.2160    3.3280    2.5140 C.3     6  LYS6        0.0994
     58 C           3.4320    4.2450    3.4470 C.2     6  LYS6        0.2338
     59 O           3.9110    5.3050    3.8240 O.2     6  LYS6       -0.2738
     60 CB          4.4330    4.0180    1.1610 C.3     6  LYS6       -0.0258
     61 CG          5.6480    3.4460    0.4150 C.3     6  LYS6       -0.0460
     62 CD          5.4480    1.9880    0.0430 C.3     6  LYS6       -0.0100
     63 CE          6.6640    1.4430   -0.7140 C.3     6  LYS6       -0.0349
     64 NZ          7.6930    0.9580    0.2200 N.3     6  LYS6       -0.0289
     65 N           2.2740    3.8300    3.7980 N.am    7  LYS7       -0.3058
     66 CA          1.4610    4.6190    4.7030 C.3     7  LYS7        0.0626
     67 C           1.9890    4.5270    6.1550 C.2     7  LYS7        0.0619
     68 O           3.2090    4.3940    6.3440 O.co2   7  LYS7       -0.5479
     69 CB          0.0020    4.1620    4.6010 C.3     7  LYS7       -0.0290
     70 CG         -0.7610    4.8120    3.4800 C.3     7  LYS7       -0.0461
     71 CD         -2.1750    4.3070    3.3280 C.3     7  LYS7       -0.0100
     72 CE         -2.9840    4.6270    4.5720 C.3     7  LYS7       -0.0349
     73 NZ         -2.9830    6.0790    4.8870 N.3     7  LYS7       -0.0289
     74 OXT         1.2360    4.5590    7.1000 O.co2   7  LYS7       -0.5479
     75 H          -6.0471    3.3453   -1.9527 H       0  UNK0        0.2094
     76 H          -5.1309    2.6766   -0.7330 H       0  UNK0        0.2094
     77 H          -6.4246    1.8352   -1.3598 H       0  UNK0        0.2094
     78 H          -5.8362    1.6827   -2.1960 H       0  UNK0        0.2094
     79 H          -5.3542    1.6485   -3.4542 H       0  UNK0        0.0963
     80 H          -3.7639    0.3775   -1.0696 H       0  UNK0        0.1262
     81 H          -4.0569    3.8203   -2.9243 H       0  UNK0        0.0330
     82 H          -2.8835    2.6812   -2.2274 H       0  UNK0        0.0330
     83 H          -3.6008    2.6565   -3.3685 H       0  UNK0        0.0367
     84 H          -2.8879    0.6170   -4.5640 H       0  UNK0        0.0467
     85 H          -4.2626    1.3960   -5.3478 H       0  UNK0        0.0467
     86 H          -2.4590    0.9338   -6.9805 H       0  UNK0        0.1461
     87 H          -1.9058    5.2097   -3.8747 H       0  UNK0        0.0621
     88 H          -0.7848    2.9414   -8.0648 H       0  UNK0        0.0636
     89 H          -0.4477    6.2448   -5.4786 H       0  UNK0        0.0618
     90 H           0.1061    5.1441   -7.5545 H       0  UNK0        0.0618
     91 H          -3.7779   -0.2028   -3.6822 H       1  LEU1        0.2052
     92 H          -2.5265    0.5931   -2.7515 H       1  LEU1        0.2052
     93 H          -3.0299   -1.5235   -1.3746 H       1  LEU1        0.0950
     94 H          -2.6387   -3.2855   -3.1892 H       1  LEU1        0.0327
     95 H          -4.2720   -2.5933   -3.0674 H       1  LEU1        0.0327
     96 H          -3.0745   -0.9624   -4.8796 H       1  LEU1        0.0298
     97 H          -2.1778   -3.7636   -5.4637 H       1  LEU1        0.0232
     98 H          -1.1367   -2.4230   -5.0489 H       1  LEU1        0.0232
     99 H          -2.0372   -2.3990   -6.5460 H       1  LEU1        0.0232
    100 H          -4.6832   -3.4361   -5.4201 H       1  LEU1        0.0232
    101 H          -4.4999   -2.0804   -6.5071 H       1  LEU1        0.0232
    102 H          -5.3308   -1.8730   -4.9840 H       1  LEU1        0.0232
    103 H          -1.1915   -0.1302   -4.0457 H       2  LEU2        0.1496
    104 H           1.2323   -1.4575   -3.2610 H       2  LEU2        0.0595
    105 H           0.8424    0.9666   -4.9947 H       2  LEU2        0.0290
    106 H           2.3073   -0.0480   -4.8662 H       2  LEU2        0.0290
    107 H           0.5754   -1.8970   -5.6161 H       2  LEU2        0.0296
    108 H          -0.3869    0.6079   -6.9553 H       2  LEU2        0.0232
    109 H          -1.2881   -0.3416   -5.7980 H       2  LEU2        0.0232
    110 H          -0.8821   -1.0190   -7.3567 H       2  LEU2        0.0232
    111 H           1.9984   -0.0180   -7.4769 H       2  LEU2        0.0232
    112 H           1.4682   -1.6356   -7.8709 H       2  LEU2        0.0232
    113 H           2.7157   -1.3928   -6.6718 H       2  LEU2        0.0232
    114 H          -0.1069    1.7299   -2.7550 H       3  VAL3        0.1495
    115 H           2.2198    2.5819   -1.2650 H       3  VAL3        0.0597
    116 H           0.6830    4.0518   -2.7344 H       3  VAL3        0.0318
    117 H          -0.9806    3.9242   -0.2663 H       3  VAL3        0.0233
    118 H          -1.4037    3.2714   -1.8308 H       3  VAL3        0.0233
    119 H          -1.2276    4.9973   -1.6229 H       3  VAL3        0.0233
    120 H           1.3656    4.9183    0.0428 H       3  VAL3        0.0233
    121 H           1.0508    5.9740   -1.3135 H       3  VAL3        0.0233
    122 H           2.4475    4.9243   -1.3292 H       3  VAL3        0.0233
    123 H          -0.3227    0.6757   -0.4761 H       4  UNK4        0.1495
    124 H          -1.1369    1.6188    2.0300 H       4  UNK4        0.0596
    125 H          -1.0515   -1.0484    0.7267 H       4  UNK4        0.0343
    126 H          -1.4591   -0.9160    2.4420 H       4  UNK4        0.0343
    127 H          -1.8071    0.0620    1.3225 H       4  UNK4        0.0865
    128 H          -3.7195   -1.7495    0.6039 H       4  UNK4        0.2031
    129 H          -3.9928   -1.2986    2.1817 H       4  UNK4        0.2031
    130 H          -3.2326    1.8766    1.4302 H       4  UNK4        0.0508
    131 H          -2.9407    1.4085   -0.2116 H       4  UNK4        0.0508
    132 H          -5.4227   -0.8637    0.0129 H       4  UNK4        0.1020
    133 H          -5.7091   -0.3831    1.6654 H       4  UNK4        0.1020
    134 H           1.7309   -0.1037    1.0811 H       5  LEU5        0.1495
    135 H           2.5618   -0.6848    3.7808 H       5  LEU5        0.0594
    136 H           4.2070   -0.6587    1.2648 H       5  LEU5        0.0290
    137 H           4.5448   -1.5130    2.7866 H       5  LEU5        0.0290
    138 H           2.2077   -2.1343    1.0429 H       5  LEU5        0.0296
    139 H           4.8706   -3.5132    1.1515 H       5  LEU5        0.0232
    140 H           4.2575   -2.5804   -0.1928 H       5  LEU5        0.0232
    141 H           3.4679   -4.0688    0.2700 H       5  LEU5        0.0232
    142 H           3.5496   -3.6094    3.3001 H       5  LEU5        0.0232
    143 H           2.1674   -4.1795    2.3959 H       5  LEU5        0.0232
    144 H           2.0254   -2.7616    3.4069 H       5  LEU5        0.0232
    145 H           2.9552    1.9470    1.5336 H       6  LYS6        0.1495
    146 H           5.1675    3.1255    2.9597 H       6  LYS6        0.0594
    147 H           3.5600    3.8794    0.5580 H       6  LYS6        0.0288
    148 H           4.6146    5.0566    1.3436 H       6  LYS6        0.0288
    149 H           5.8036    4.0130   -0.4790 H       6  LYS6        0.0268
    150 H           6.4962    3.5096    1.0642 H       6  LYS6        0.0268
    151 H           5.3060    1.4154    0.9356 H       6  LYS6        0.0318
    152 H           4.5895    1.9125   -0.5912 H       6  LYS6        0.0318
    153 H           7.0789    2.2231   -1.3174 H       6  LYS6        0.0841
    154 H           6.3460    0.6247   -1.3257 H       6  LYS6        0.0841
    155 H           8.0063    1.7283    0.8107 H       6  LYS6        0.2091
    156 H           8.4848    0.5903   -0.3075 H       6  LYS6        0.2091
    157 H           7.3010    0.2193    0.8041 H       6  LYS6        0.2091
    158 H           8.6572    1.1709    0.4757 H       6  LYS6        0.2091
    159 H           1.9340    2.9729    3.4529 H       7  LYS7        0.1494
    160 H           1.5185    5.6494    4.4203 H       7  LYS7        0.0560
    161 H          -0.0098    3.1031    4.4475 H       7  LYS7        0.0287
    162 H          -0.4788    4.4493    5.5127 H       7  LYS7        0.0287
    163 H          -0.7976    5.8654    3.6641 H       7  LYS7        0.0268
    164 H          -0.2463    4.5705    2.5736 H       7  LYS7        0.0268
    165 H          -2.1577    3.2473    3.1809 H       7  LYS7        0.0318
    166 H          -2.6275    4.7862    2.4851 H       7  LYS7        0.0318
    167 H          -2.5659    4.0948    5.4007 H       7  LYS7        0.0841
    168 H          -3.9962    4.3323    4.3891 H       7  LYS7        0.0841
    169 H          -2.0274    6.3874    5.0663 H       7  LYS7        0.2091
    170 H          -3.5555    6.2479    5.7141 H       7  LYS7        0.2091
    171 H          -3.3654    6.5986    4.0969 H       7  LYS7        0.2091
    172 H          -2.3326    6.6208    5.4561 H       7  LYS7        0.2091
@<TRIPOS>UNITY_ATOM_ATTR
1 1
charge 1
15 1
charge 1
44 1
charge 1
64 1
charge 1
73 1
charge 1
74 1
charge -1
@<TRIPOS>BOND
     1    12    14   ar
     2    12    10   ar
     3    30    28    1
     4    14    13   ar
     5    29    28    1
     6     9    10    1
     7     9     7    1
     8    10     8   ar
     9    28    27    1
    10    13    11   ar
    11    21    20    1
    12    22    20    1
    13     7     6    1
    14     8    11   ar
    15     8     6    1
    16    27    24    1
    17    20    19    1
    18     6     5    1
    19    24    23    1
    20    24    25    1
    21    23    17   am
    22    19    16    1
    23     5     2    1
    24    15    16    1
    25    15     3    1
    26     2     3    1
    27     2     1    1
    28    17    16    1
    29    17    18    2
    30    25    31   am
    31    25    26    2
    32    31    32    1
    33     3     4    1
    34    35    36    1
    35    35    32    1
    36    35    37    1
    37    32    33    1
    38     4    47    1
    39    63    62    1
    40    63    64    1
    41    62    61    1
    42    33    38   am
    43    33    34    2
    44    38    39    1
    45    61    60    1
    46    47    45    1
    47    47    46    1
    48    54    53    1
    49    45    43    1
    50    46    44    1
    51    43    44    1
    52    43    42    1
    53    60    57    1
    54    42    39    1
    55    53    52    1
    56    53    55    1
    57    39    40    1
    58    48    40   am
    59    48    49    1
    60    52    49    1
    61    56    57    1
    62    56    50   am
    63    57    58    1
    64    40    41    2
    65    49    50    1
    66    50    51    2
    67    71    70    1
    68    71    72    1
    69    58    65   am
    70    58    59    2
    71    70    69    1
    72    65    66    1
    73    72    73    1
    74    69    66    1
    75    66    67    1
    76    67    68   ar
    77    67    74   ar
    78     1    75    1
    79     1    76    1
    80     1    77    1
    81     1    78    1
    82     2    79    1
    83     3    80    1
    84     5    81    1
    85     5    82    1
    86     6    83    1
    87     7    84    1
    88     7    85    1
    89     9    86    1
    90    11    87    1
    91    12    88    1
    92    13    89    1
    93    14    90    1
    94    15    91    1
    95    15    92    1
    96    16    93    1
    97    19    94    1
    98    19    95    1
    99    20    96    1
   100    21    97    1
   101    21    98    1
   102    21    99    1
   103    22   100    1
   104    22   101    1
   105    22   102    1
   106    23   103    1
   107    24   104    1
   108    27   105    1
   109    27   106    1
   110    28   107    1
   111    29   108    1
   112    29   109    1
   113    29   110    1
   114    30   111    1
   115    30   112    1
   116    30   113    1
   117    31   114    1
   118    32   115    1
   119    35   116    1
   120    36   117    1
   121    36   118    1
   122    36   119    1
   123    37   120    1
   124    37   121    1
   125    37   122    1
   126    38   123    1
   127    39   124    1
   128    42   125    1
   129    42   126    1
   130    43   127    1
   131    44   128    1
   132    44   129    1
   133    45   130    1
   134    45   131    1
   135    46   132    1
   136    46   133    1
   137    48   134    1
   138    49   135    1
   139    52   136    1
   140    52   137    1
   141    53   138    1
   142    54   139    1
   143    54   140    1
   144    54   141    1
   145    55   142    1
   146    55   143    1
   147    55   144    1
   148    56   145    1
   149    57   146    1
   150    60   147    1
   151    60   148    1
   152    61   149    1
   153    61   150    1
   154    62   151    1
   155    62   152    1
   156    63   153    1
   157    63   154    1
   158    64   155    1
   159    64   156    1
   160    64   157    1
   161    64   158    1
   162    65   159    1
   163    66   160    1
   164    69   161    1
   165    69   162    1
   166    70   163    1
   167    70   164    1
   168    71   165    1
   169    71   166    1
   170    72   167    1
   171    72   168    1
   172    73   169    1
   173    73   170    1
   174    73   171    1
   175    73   172    1
