@<TRIPOS>MOLECULE
/mnt/hpc/home/25menglei/25wenshaohua/MD/yzy/docking/dc/peptides/pdb/yhhllcrr.pdb
 160 162 0 0 0
SMALL
GASTEIGER

@<TRIPOS>ATOM
      1 N           3.3310    1.7450   -8.7860 N.3     1  TYR1       -0.0180
      2 CA          3.5970    2.3010   -7.4370 C.3     1  TYR1        0.0569
      3 C           2.8550    1.5040   -6.3610 C.2     1  TYR1        0.2648
      4 O           1.6720    1.2100   -6.5090 O.2     1  TYR1       -0.2694
      5 CB          3.1170    3.7430   -7.3890 C.3     1  TYR1        0.0267
      6 CG          4.2400    4.6890   -7.7070 C.ar    1  TYR1       -0.0412
      7 CD2         5.2770    4.8770   -6.7980 C.ar    1  TYR1       -0.0549
      8 CD1         4.2440    5.4000   -8.9040 C.ar    1  TYR1       -0.0549
      9 CE2         6.3160    5.7500   -7.0980 C.ar    1  TYR1       -0.0199
     10 CE1         5.2830    6.2760   -9.2060 C.ar    1  TYR1       -0.0199
     11 CZ          6.3060    6.4440   -8.3010 C.ar    1  TYR1        0.1169
     12 OH          7.3380    7.3080   -8.5910 O.3     1  TYR1       -0.5068
     13 N           3.5150    1.1660   -5.3020 N.am    2  HIS2       -0.2989
     14 CA          2.8970    0.4070   -4.2030 C.3     2  HIS2        0.1049
     15 C           2.6050    1.3240   -3.0130 C.2     2  HIS2        0.2343
     16 O           3.4320    1.4820   -2.1300 O.2     2  HIS2       -0.2738
     17 CB          3.8480   -0.7140   -3.7760 C.3     2  HIS2        0.0160
     18 CG          3.5230   -2.0150   -4.4440 C.ar    2  HIS2        0.0375
     19 ND1         3.6300   -2.2200   -5.8000 N.ar    2  HIS2       -0.3481
     20 CD2         3.0980   -3.1930   -3.9070 C.ar    2  HIS2        0.0485
     21 CE1         3.2670   -3.4720   -6.0570 C.ar    2  HIS2        0.0935
     22 NE2         2.9490   -4.0890   -4.9330 N.ar    2  HIS2       -0.2440
     23 N           1.4240    1.9180   -2.9830 N.am    3  HIS3       -0.3024
     24 CA          1.0410    2.8130   -1.8800 C.3     3  HIS3        0.1011
     25 C          -0.4790    2.8110   -1.6580 C.2     3  HIS3        0.2340
     26 O          -1.0190    3.6640   -0.9810 O.2     3  HIS3       -0.2738
     27 CB          1.5150    4.2270   -2.2130 C.3     3  HIS3       -0.0058
     28 CG          0.8030    4.7660   -3.4290 C.3     3  HIS3        0.0430
     29 ND1         1.1250    4.4330   -4.7200 N.pl3   3  HIS3       -0.3306
     30 CD2        -0.2330    5.6470   -3.4910 C.3     3  HIS3        0.0595
     31 CE1         0.3130    5.0880   -5.5390 C.2     3  HIS3        0.0761
     32 NE2        -0.5310    5.8400   -4.8320 N.2     3  HIS3       -0.2749
     33 N          -1.1740    1.8500   -2.2320 N.am    4  LEU4       -0.3025
     34 CA         -2.6340    1.7490   -2.0780 C.3     4  LEU4        0.0996
     35 C          -3.0410    0.4200   -1.4470 C.2     4  LEU4        0.2340
     36 O          -4.1360   -0.0790   -1.6810 O.2     4  LEU4       -0.2738
     37 CB         -3.2770    1.8790   -3.4680 C.3     4  LEU4       -0.0236
     38 CG         -3.1780    3.2860   -4.0530 C.3     4  LEU4       -0.0446
     39 CD1        -3.6140    3.2790   -5.5190 C.3     4  LEU4       -0.0626
     40 CD2        -4.0990    4.2290   -3.2530 C.3     4  LEU4       -0.0626
     41 N          -2.1700   -0.1460   -0.6630 N.am    5  LEU5       -0.3025
     42 CA         -2.4550   -1.4410   -0.0320 C.3     5  LEU5        0.0996
     43 C          -2.1410   -1.4010    1.4710 C.2     5  LEU5        0.2340
     44 O          -2.9520   -1.8010    2.2960 O.2     5  LEU5       -0.2738
     45 CB         -1.6240   -2.5250   -0.7310 C.3     5  LEU5       -0.0236
     46 CG         -2.3640   -3.8620   -0.9040 C.3     5  LEU5       -0.0446
     47 CD1        -1.5560   -4.8080   -1.7830 C.3     5  LEU5       -0.0626
     48 CD2        -2.6180   -4.5100    0.4480 C.3     5  LEU5       -0.0626
     49 N          -0.9950   -0.9320    1.8240 N.am    6  CYS6       -0.3017
     50 CA         -0.5810   -0.8680    3.2360 C.3     6  CYS6        0.1081
     51 C          -0.6110    0.5760    3.7610 C.2     6  CYS6        0.2347
     52 O           0.3680    1.0810    4.2920 O.2     6  CYS6       -0.2737
     53 CB          0.8290   -1.4540    3.3580 C.3     6  CYS6        0.0177
     54 SG          0.8270   -3.2210    2.9270 S.3     6  CYS6       -0.1759
     55 N          -1.7500    1.2180    3.6120 N.am    7  ARG7       -0.3025
     56 CA         -1.8920    2.6190    4.0600 C.3     7  ARG7        0.0995
     57 C          -2.9460    2.7430    5.1700 C.2     7  ARG7        0.2338
     58 O          -3.8040    3.6130    5.1320 O.2     7  ARG7       -0.2738
     59 CB         -2.2870    3.4720    2.8540 C.3     7  ARG7       -0.0231
     60 CG         -1.7260    4.8720    2.9540 C.3     7  ARG7       -0.0201
     61 CD         -2.0910    5.6830    1.7050 C.3     7  ARG7        0.0645
     62 NE         -3.4480    6.2210    1.8230 N.pl3   7  ARG7       -0.2811
     63 CZ         -4.0770    6.8610    0.8320 C.cat   7  ARG7        0.3114
     64 NH1        -3.5050    6.9900   -0.3460 N.pl3   7  ARG7       -0.3944
     65 NH2        -5.2760    7.3610    1.0330 N.pl3   7  ARG7       -0.2942
     66 N          -2.8820    1.8820    6.1550 N.am    8  ARG8       -0.3058
     67 CA         -3.8520    1.8940    7.2620 C.3     8  ARG8        0.0627
     68 C          -3.2860    2.6340    8.4830 C.2     8  ARG8        0.0619
     69 O          -3.8890    3.6310    8.9060 O.co2   8  ARG8       -0.5479
     70 CB         -4.2120    0.4430    7.6480 C.3     8  ARG8       -0.0264
     71 CG         -4.8850   -0.2770    6.4950 C.3     8  ARG8       -0.0202
     72 CD         -5.2740   -1.6950    6.9030 C.3     8  ARG8        0.0645
     73 NE         -5.5700   -2.5000    5.7140 N.pl3   8  ARG8       -0.2811
     74 CZ         -6.1870   -3.6750    5.7650 C.cat   8  ARG8        0.3114
     75 NH2        -6.5630   -4.1870    6.9220 N.pl3   8  ARG8       -0.2942
     76 NH1        -6.4150   -4.3430    4.6540 N.pl3   8  ARG8       -0.3944
     77 OXT        -2.2470    2.2300    9.0050 O.co2   8  ARG8       -0.5479
     78 H           3.8350    2.2914   -9.4844 H       1  TYR1        0.2094
     79 H           2.3304    1.7861   -8.9794 H       1  TYR1        0.2094
     80 H           3.6447    0.7751   -8.8219 H       1  TYR1        0.2094
     81 H           2.7025    1.4626   -9.5381 H       1  TYR1        0.2094
     82 H           4.6488    2.2443   -7.2490 H       1  TYR1        0.0980
     83 H           2.3328    3.8759   -8.1048 H       1  TYR1        0.0374
     84 H           2.7598    3.9533   -6.4026 H       1  TYR1        0.0374
     85 H           5.2744    4.3677   -5.9004 H       1  TYR1        0.0621
     86 H           3.4690    5.2764   -9.5741 H       1  TYR1        0.0621
     87 H           7.0914    5.8820   -6.4299 H       1  TYR1        0.0654
     88 H           5.2860    6.7937  -10.0987 H       1  TYR1        0.0654
     89 H           7.3400    7.7806   -9.4001 H       1  TYR1        0.2921
     90 H           4.4620    1.4248   -5.2283 H       2  HIS2        0.1497
     91 H           1.9710   -0.0097   -4.5403 H       2  HIS2        0.0598
     92 H           4.8482   -0.4345   -4.0336 H       2  HIS2        0.0351
     93 H           3.7424   -0.8508   -2.7201 H       2  HIS2        0.0351
     94 H           3.9241   -1.5553   -6.4640 H       2  HIS2        0.1665
     95 H           2.9203   -3.3773   -2.9073 H       2  HIS2        0.0848
     96 H           3.2378   -3.8993   -6.9959 H       2  HIS2        0.1027
     97 H           0.7863    1.7576   -3.7157 H       3  HIS3        0.1495
     98 H           1.5003    2.4669   -0.9777 H       3  HIS3        0.0595
     99 H           1.3165    4.8676   -1.3792 H       3  HIS3        0.0306
    100 H           2.5642    4.1938   -2.4203 H       3  HIS3        0.0306
    101 H           1.1017    4.5070   -2.4347 H       3  HIS3        0.0516
    102 H           1.8388    3.8122   -4.9928 H       3  HIS3        0.1472
    103 H          -1.0843    5.2475   -2.9806 H       3  HIS3        0.0527
    104 H           0.0292    6.5734   -3.0242 H       3  HIS3        0.0527
    105 H           0.3317    5.0250   -6.5689 H       3  HIS3        0.0993
    106 H          -0.7033    1.1806   -2.7794 H       4  LEU4        0.1495
    107 H          -2.9688    2.5309   -1.4288 H       4  LEU4        0.0594
    108 H          -2.7864    1.1997   -4.1335 H       4  LEU4        0.0290
    109 H          -4.3175    1.6558   -3.3567 H       4  LEU4        0.0290
    110 H          -2.1641    3.6226   -3.9925 H       4  LEU4        0.0296
    111 H          -4.6276    2.9433   -5.5880 H       4  LEU4        0.0232
    112 H          -2.9813    2.6200   -6.0761 H       4  LEU4        0.0232
    113 H          -3.5380    4.2687   -5.9184 H       4  LEU4        0.0232
    114 H          -5.1092    3.8829   -3.3207 H       4  LEU4        0.0232
    115 H          -4.0331    5.2181   -3.6557 H       4  LEU4        0.0232
    116 H          -3.7938    4.2403   -2.2275 H       4  LEU4        0.0232
    117 H          -1.3092    0.2996   -0.4908 H       5  LEU5        0.1495
    118 H          -3.4964   -1.6641   -0.1353 H       5  LEU5        0.0594
    119 H          -1.3474   -2.1651   -1.6999 H       5  LEU5        0.0290
    120 H          -0.7763   -2.7174   -0.1071 H       5  LEU5        0.0290
    121 H          -3.3035   -3.6642   -1.3763 H       5  LEU5        0.0296
    122 H          -0.6143   -5.0108   -1.3172 H       5  LEU5        0.0232
    123 H          -1.3912   -4.3543   -2.7379 H       5  LEU5        0.0232
    124 H          -2.0949   -5.7234   -1.9113 H       5  LEU5        0.0232
    125 H          -1.6833   -4.7116    0.9281 H       5  LEU5        0.0232
    126 H          -3.1528   -5.4264    0.3095 H       5  LEU5        0.0232
    127 H          -3.1967   -3.8480    1.0577 H       5  LEU5        0.0232
    128 H          -0.3774   -0.6067    1.1297 H       6  CYS6        0.1495
    129 H          -1.2662   -1.4358    3.8301 H       6  CYS6        0.0603
    130 H           1.4858   -0.9310    2.6948 H       6  CYS6        0.0397
    131 H           1.1613   -1.3459    4.3693 H       6  CYS6        0.0397
    132 H           0.4063   -3.3739    1.6428 H       6  CYS6        0.1017
    133 H          -2.5163    0.7597    3.1973 H       7  ARG7        0.1495
    134 H          -0.9615    2.9584    4.4647 H       7  ARG7        0.0594
    135 H          -1.9118    3.0104    1.9646 H       7  ARG7        0.0289
    136 H          -3.3545    3.5406    2.8283 H       7  ARG7        0.0289
    137 H          -2.1321    5.3539    3.8187 H       7  ARG7        0.0296
    138 H          -0.6604    4.8148    3.0323 H       7  ARG7        0.0296
    139 H          -1.3994    6.4921    1.5957 H       7  ARG7        0.0655
    140 H          -2.0455    5.0417    0.8497 H       7  ARG7        0.0655
    141 H          -3.9224    6.1052    2.6778 H       7  ARG7        0.2577
    142 H          -3.9735    7.4624   -1.0716 H       7  ARG7        0.2155
    143 H          -2.6085    6.6141   -0.5017 H       7  ARG7        0.2155
    144 H          -3.7654    7.7986    0.1515 H       7  ARG7        0.2155
    145 H          -5.7411    7.8327    0.3047 H       7  ARG7        0.2545
    146 H          -5.7089    7.2638    1.9119 H       7  ARG7        0.2545
    147 H          -2.1647    1.2077    6.1549 H       8  ARG8        0.1494
    148 H          -4.7315    2.4100    6.9377 H       8  ARG8        0.0560
    149 H          -3.3172   -0.0806    7.9126 H       8  ARG8        0.0288
    150 H          -4.8904    0.4693    8.4750 H       8  ARG8        0.0288
    151 H          -5.7648    0.2610    6.2096 H       8  ARG8        0.0296
    152 H          -4.2012   -0.3290    5.6737 H       8  ARG8        0.0296
    153 H          -4.4645   -2.1429    7.4407 H       8  ARG8        0.0655
    154 H          -6.1452   -1.6537    7.5228 H       8  ARG8        0.0655
    155 H          -5.2979   -2.1523    4.8340 H       8  ARG8        0.2577
    156 H          -7.0198   -5.0587    6.9494 H       8  ARG8        0.2545
    157 H          -6.3867   -3.6972    7.7576 H       8  ARG8        0.2545
    158 H          -6.1371   -3.9669    3.7876 H       8  ARG8        0.2155
    159 H          -6.8634   -5.2187    4.6894 H       8  ARG8        0.2155
    160 H          -5.9900   -4.8401    5.3899 H       8  ARG8        0.2155
@<TRIPOS>UNITY_ATOM_ATTR
1 1
charge 1
64 1
charge 1
76 1
charge 1
77 1
charge -1
@<TRIPOS>BOND
     1    10     8   ar
     2    10    11   ar
     3     8     6   ar
     4     1     2    1
     5    12    11    1
     6    11     9   ar
     7     6     5    1
     8     6     7   ar
     9     2     5    1
    10     2     3    1
    11     9     7   ar
    12     4     3    2
    13     3    13   am
    14    21    19   ar
    15    21    22   ar
    16    19    18   ar
    17    31    32    2
    18    31    29    1
    19    39    38    1
    20    13    14    1
    21    22    20   ar
    22    32    30    1
    23    29    28    1
    24    18    20   ar
    25    18    17    1
    26    14    17    1
    27    14    15    1
    28    38    37    1
    29    38    40    1
    30    30    28    1
    31    37    34    1
    32    28    27    1
    33    15    23   am
    34    15    16    2
    35    23    24    1
    36    33    34    1
    37    33    25   am
    38    27    24    1
    39    34    35    1
    40    24    25    1
    41    47    46    1
    42    36    35    2
    43    25    26    2
    44    35    41   am
    45    46    45    1
    46    46    48    1
    47    45    42    1
    48    41    42    1
    49    64    63    2
    50    42    43    1
    51    63    65    1
    52    63    62    1
    53    43    49   am
    54    43    44    2
    55    61    62    1
    56    61    60    1
    57    49    50    1
    58    59    60    1
    59    59    56    1
    60    54    53    1
    61    50    53    1
    62    50    51    1
    63    55    51   am
    64    55    56    1
    65    51    52    2
    66    56    57    1
    67    76    74    2
    68    58    57    2
    69    57    66   am
    70    73    74    1
    71    73    72    1
    72    74    75    1
    73    66    67    1
    74    71    72    1
    75    71    70    1
    76    67    70    1
    77    67    68    1
    78    68    69   ar
    79    68    77   ar
    80     1    78    1
    81     1    79    1
    82     1    80    1
    83     1    81    1
    84     2    82    1
    85     5    83    1
    86     5    84    1
    87     7    85    1
    88     8    86    1
    89     9    87    1
    90    10    88    1
    91    12    89    1
    92    13    90    1
    93    14    91    1
    94    17    92    1
    95    17    93    1
    96    19    94    1
    97    20    95    1
    98    21    96    1
    99    23    97    1
   100    24    98    1
   101    27    99    1
   102    27   100    1
   103    28   101    1
   104    29   102    1
   105    30   103    1
   106    30   104    1
   107    31   105    1
   108    33   106    1
   109    34   107    1
   110    37   108    1
   111    37   109    1
   112    38   110    1
   113    39   111    1
   114    39   112    1
   115    39   113    1
   116    40   114    1
   117    40   115    1
   118    40   116    1
   119    41   117    1
   120    42   118    1
   121    45   119    1
   122    45   120    1
   123    46   121    1
   124    47   122    1
   125    47   123    1
   126    47   124    1
   127    48   125    1
   128    48   126    1
   129    48   127    1
   130    49   128    1
   131    50   129    1
   132    53   130    1
   133    53   131    1
   134    54   132    1
   135    55   133    1
   136    56   134    1
   137    59   135    1
   138    59   136    1
   139    60   137    1
   140    60   138    1
   141    61   139    1
   142    61   140    1
   143    62   141    1
   144    64   142    1
   145    64   143    1
   146    64   144    1
   147    65   145    1
   148    65   146    1
   149    66   147    1
   150    67   148    1
   151    70   149    1
   152    70   150    1
   153    71   151    1
   154    71   152    1
   155    72   153    1
   156    72   154    1
   157    73   155    1
   158    75   156    1
   159    75   157    1
   160    76   158    1
   161    76   159    1
   162    76   160    1
