@<TRIPOS>MOLECULE
/mnt/hpc/home/25menglei/25wenshaohua/MD/yzy/docking/dc/peptides/pdb/ylsllqr.pdb
 135 135 0 0 0
SMALL
GASTEIGER

@<TRIPOS>ATOM
      1 N           5.4090   -0.3130    2.1060 N.3     1  TYR1       -0.0180
      2 CA          4.4200    0.5760    2.7340 C.3     1  TYR1        0.0569
      3 C           3.0060    0.0710    2.4270 C.2     1  TYR1        0.2648
      4 O           2.6570   -0.1060    1.2580 O.2     1  TYR1       -0.2694
      5 CB          4.6110    2.0040    2.2090 C.3     1  TYR1        0.0267
      6 CG          4.3870    3.0680    3.2530 C.ar    1  TYR1       -0.0412
      7 CD2         5.1120    3.0650    4.4440 C.ar    1  TYR1       -0.0549
      8 CD1         3.4810    4.0950    3.0320 C.ar    1  TYR1       -0.0549
      9 CE2         4.9270    4.0560    5.4110 C.ar    1  TYR1       -0.0199
     10 CE1         3.3000    5.0980    4.0000 C.ar    1  TYR1       -0.0199
     11 CZ          4.0120    5.0730    5.1800 C.ar    1  TYR1        0.1169
     12 OH          3.8290    6.0410    6.1310 O.3     1  TYR1       -0.5068
     13 N           2.2300   -0.1680    3.4310 N.am    2  LEU2       -0.2993
     14 CA          0.8770   -0.7000    3.2860 C.3     2  LEU2        0.0998
     15 C          -0.0890    0.2180    2.5180 C.2     2  LEU2        0.2340
     16 O          -1.1380   -0.2110    2.0670 O.2     2  LEU2       -0.2738
     17 CB          0.3160   -1.1390    4.6670 C.3     2  LEU2       -0.0236
     18 CG         -0.1190   -0.1090    5.7320 C.3     2  LEU2       -0.0446
     19 CD2         0.9110    1.0250    5.9060 C.3     2  LEU2       -0.0626
     20 CD1        -1.4880    0.4510    5.4350 C.3     2  LEU2       -0.0626
     21 N           0.2830    1.4840    2.3560 N.am    3  SER3       -0.3006
     22 CA         -0.5080    2.4670    1.6290 C.3     3  SER3        0.1226
     23 C          -0.7700    2.0670    0.1800 C.2     3  SER3        0.2362
     24 O          -1.8350    2.3490   -0.3570 O.2     3  SER3       -0.2737
     25 CB          0.1920    3.8240    1.6870 C.3     3  SER3        0.0711
     26 OG          0.1730    4.3290    3.0180 O.3     3  SER3       -0.3927
     27 N           0.2010    1.3910   -0.4420 N.am    4  LEU4       -0.3024
     28 CA          0.0750    0.9640   -1.8210 C.3     4  LEU4        0.0997
     29 C          -0.9780   -0.1300   -2.0150 C.2     4  LEU4        0.2340
     30 O          -1.4570   -0.3400   -3.1270 O.2     4  LEU4       -0.2738
     31 CB          1.4450    0.5610   -2.3640 C.3     4  LEU4       -0.0236
     32 CG          2.3150   -0.2050   -1.3720 C.3     4  LEU4       -0.0446
     33 CD1         2.2700   -1.6860   -1.6230 C.3     4  LEU4       -0.0626
     34 CD2         3.7260    0.3150   -1.4480 C.3     4  LEU4       -0.0626
     35 N          -1.3450   -0.7970   -0.9540 N.am    5  LEU5       -0.3025
     36 CA         -2.4100   -1.7930   -0.9940 C.3     5  LEU5        0.0996
     37 C          -3.7140   -1.2160   -0.4320 C.2     5  LEU5        0.2340
     38 O          -4.8000   -1.7060   -0.7290 O.2     5  LEU5       -0.2738
     39 CB         -1.9640   -3.0710   -0.2630 C.3     5  LEU5       -0.0236
     40 CG         -1.6550   -2.9290    1.2240 C.3     5  LEU5       -0.0446
     41 CD2        -2.8720   -3.3020    2.0690 C.3     5  LEU5       -0.0626
     42 CD1        -0.4960   -3.8300    1.5720 C.3     5  LEU5       -0.0626
     43 N          -3.5950   -0.1900    0.3630 N.am    6  GLN6       -0.3025
     44 CA         -4.7290    0.5240    0.9260 C.3     6  GLN6        0.0999
     45 C          -5.2340    1.5700   -0.0490 C.2     6  GLN6        0.2339
     46 O          -6.4410    1.7130   -0.2350 O.2     6  GLN6       -0.2738
     47 CB         -4.3100    1.2100    2.2530 C.3     6  GLN6       -0.0177
     48 CG         -4.8270    0.5060    3.4960 C.3     6  GLN6        0.0259
     49 CD         -6.3020    0.7550    3.7360 C.2     6  GLN6        0.2106
     50 OE1        -6.7380    1.8830    3.8840 O.2     6  GLN6       -0.2760
     51 NE2        -7.0850   -0.3030    3.7970 N.am    6  GLN6       -0.3293
     52 N          -4.2490    2.2690   -0.7080 N.am    7  ARG7       -0.3058
     53 CA         -4.4680    3.3420   -1.6800 C.3     7  ARG7        0.0627
     54 C          -5.4630    4.3710   -1.1900 C.2     7  ARG7        0.0619
     55 OXT        -5.0200    5.5420   -0.9530 O.co2   7  ARG7       -0.5479
     56 CB         -4.8480    2.8040   -3.0630 C.3     7  ARG7       -0.0264
     57 CG         -6.1430    2.0270   -3.0930 C.3     7  ARG7       -0.0202
     58 CD         -5.8900    0.6020   -3.4630 C.3     7  ARG7        0.0645
     59 NE         -7.1420   -0.1240   -3.5940 N.pl3   7  ARG7       -0.2811
     60 CZ         -7.3760   -1.2990   -3.0410 C.cat   7  ARG7        0.3114
     61 NH2        -6.4570   -1.8760   -2.2840 N.pl3   7  ARG7       -0.2942
     62 NH1        -8.5270   -1.9030   -3.2500 N.pl3   7  ARG7       -0.3944
     63 O          -6.6420    4.0780   -1.0330 O.co2   7  ARG7       -0.5479
     64 H           6.3491    0.0251    2.3117 H       1  TYR1        0.2094
     65 H           5.2646   -0.3229    1.0963 H       1  TYR1        0.2094
     66 H           5.2993   -1.2578    2.4744 H       1  TYR1        0.2094
     67 H           4.8508   -1.0306    1.6435 H       1  TYR1        0.2094
     68 H           4.5574    0.5790    3.7951 H       1  TYR1        0.0980
     69 H           3.9194    2.1651    1.4086 H       1  TYR1        0.0374
     70 H           5.6294    2.0869    1.8912 H       1  TYR1        0.0374
     71 H           5.7998    2.3148    4.6147 H       1  TYR1        0.0621
     72 H           2.9384    4.1227    2.1546 H       1  TYR1        0.0621
     73 H           5.4667    4.0318    6.2903 H       1  TYR1        0.0654
     74 H           2.6272    5.8608    3.8255 H       1  TYR1        0.0654
     75 H           3.2133    6.7318    5.9839 H       1  TYR1        0.2921
     76 H           2.5661    0.0171    4.3376 H       2  LEU2        0.1496
     77 H           0.9574   -1.5658    2.6624 H       2  LEU2        0.0595
     78 H           1.0749   -1.7402    5.1225 H       2  LEU2        0.0290
     79 H          -0.6138   -1.5961    4.3997 H       2  LEU2        0.0290
     80 H          -0.1698   -0.6370    6.6612 H       2  LEU2        0.0296
     81 H           0.9901    1.5781    4.9935 H       2  LEU2        0.0232
     82 H           1.8642    0.6063    6.1530 H       2  LEU2        0.0232
     83 H           0.5936    1.6776    6.6923 H       2  LEU2        0.0232
     84 H          -1.4616    0.9847    4.5080 H       2  LEU2        0.0232
     85 H          -1.7796    1.1158    6.2211 H       2  LEU2        0.0232
     86 H          -2.1937   -0.3503    5.3653 H       2  LEU2        0.0232
     87 H           1.1387    1.7722    2.7484 H       3  SER3        0.1496
     88 H          -1.4648    2.5236    2.1047 H       3  SER3        0.0618
     89 H          -0.3137    4.5108    1.0409 H       3  SER3        0.0580
     90 H           1.2078    3.7073    1.3717 H       3  SER3        0.0580
     91 H          -0.7458    4.4370    3.3097 H       3  SER3        0.2095
     92 H           1.0258    1.1770    0.0511 H       4  LEU4        0.1495
     93 H          -0.2844    1.7948   -2.3915 H       4  LEU4        0.0594
     94 H           1.9667    1.4504   -2.6496 H       4  LEU4        0.0290
     95 H           1.2656   -0.0993   -3.1866 H       4  LEU4        0.0290
     96 H           1.9319   -0.0480   -0.3854 H       4  LEU4        0.0296
     97 H           2.6456   -1.8932   -2.6033 H       4  LEU4        0.0232
     98 H           1.2595   -2.0299   -1.5481 H       4  LEU4        0.0232
     99 H           2.8728   -2.1894   -0.8963 H       4  LEU4        0.0232
    100 H           4.1110    0.1589   -2.4341 H       4  LEU4        0.0232
    101 H           4.3366   -0.2056   -0.7401 H       4  LEU4        0.0232
    102 H           3.7331    1.3612   -1.2238 H       4  LEU4        0.0232
    103 H          -0.8882   -0.6220   -0.0996 H       5  LEU5        0.1495
    104 H          -2.6080   -2.0603   -2.0110 H       5  LEU5        0.0594
    105 H          -1.0798   -3.4307   -0.7463 H       5  LEU5        0.0290
    106 H          -2.8004   -3.7361   -0.3173 H       5  LEU5        0.0290
    107 H          -1.4032   -1.9101    1.4324 H       5  LEU5        0.0296
    108 H          -3.1419   -4.3193    1.8761 H       5  LEU5        0.0232
    109 H          -3.6912   -2.6616    1.8166 H       5  LEU5        0.0232
    110 H          -2.6352   -3.1863    3.1060 H       5  LEU5        0.0232
    111 H          -0.7577   -4.8457    1.3602 H       5  LEU5        0.0232
    112 H          -0.2666   -3.7303    2.6124 H       5  LEU5        0.0232
    113 H           0.3583   -3.5530    0.9903 H       5  LEU5        0.0232
    114 H          -2.6889    0.1177    0.5944 H       6  GLN6        0.1495
    115 H          -5.5141   -0.1773    1.1175 H       6  GLN6        0.0595
    116 H          -4.6886    2.2108    2.2498 H       6  GLN6        0.0292
    117 H          -3.2414    1.1771    2.2974 H       6  GLN6        0.0292
    118 H          -4.2775    0.8594    4.3434 H       6  GLN6        0.0359
    119 H          -4.6955   -0.5459    3.3508 H       6  GLN6        0.0359
    120 H          -6.7064   -1.2034    3.6737 H       6  GLN6        0.1449
    121 H          -8.0487   -0.1931    3.9658 H       6  GLN6        0.1449
    122 H          -3.3158    2.0267   -0.5087 H       7  ARG7        0.1494
    123 H          -3.5288    3.8436   -1.7854 H       7  ARG7        0.0560
    124 H          -4.9396    3.6340   -3.7320 H       7  ARG7        0.0288
    125 H          -4.0747    2.1223   -3.3498 H       7  ARG7        0.0288
    126 H          -6.5983    2.0640   -2.1254 H       7  ARG7        0.0296
    127 H          -6.7918    2.4640   -3.8230 H       7  ARG7        0.0296
    128 H          -5.3654    0.5688   -4.3950 H       7  ARG7        0.0655
    129 H          -5.3058    0.1446   -2.6920 H       7  ARG7        0.0655
    130 H          -7.8600    0.2861   -4.1284 H       7  ARG7        0.2577
    131 H          -5.5956   -1.4261   -2.1264 H       7  ARG7        0.2545
    132 H          -6.6346   -2.7553   -1.8783 H       7  ARG7        0.2545
    133 H          -9.2122   -1.4754   -3.8130 H       7  ARG7        0.2155
    134 H          -8.7025   -2.7822   -2.8433 H       7  ARG7        0.2155
    135 H          -7.9283   -2.6299   -2.9628 H       7  ARG7        0.2155
@<TRIPOS>UNITY_ATOM_ATTR
1 1
charge 1
55 1
charge -1
62 1
charge 1
@<TRIPOS>BOND
     1    59    58    1
     2    59    60    1
     3    58    57    1
     4    62    60    2
     5    30    29    2
     6    57    56    1
     7    56    53    1
     8    60    61    1
     9    31    28    1
    10    31    32    1
    11    29    28    1
    12    29    35   am
    13    28    27    1
    14    53    54    1
    15    53    52    1
    16    33    32    1
    17    34    32    1
    18    54    63   ar
    19    54    55   ar
    20    36    35    1
    21    36    37    1
    22    36    39    1
    23    38    37    2
    24    52    45   am
    25    27    23   am
    26    37    43   am
    27    24    23    2
    28    39    40    1
    29    46    45    2
    30    45    44    1
    31    23    22    1
    32    43    44    1
    33    44    47    1
    34    40    42    1
    35    40    41    1
    36     4     3    2
    37    22    25    1
    38    22    21    1
    39    25    26    1
    40    16    15    2
    41     1     2    1
    42     5     2    1
    43     5     6    1
    44    47    48    1
    45    21    15   am
    46     3     2    1
    47     3    13   am
    48    15    14    1
    49     8     6   ar
    50     8    10   ar
    51     6     7   ar
    52    14    13    1
    53    14    17    1
    54    48    49    1
    55    49    51   am
    56    49    50    2
    57    10    11   ar
    58     7     9   ar
    59    17    18    1
    60    11     9   ar
    61    11    12    1
    62    20    18    1
    63    18    19    1
    64     1    64    1
    65     1    65    1
    66     1    66    1
    67     1    67    1
    68     2    68    1
    69     5    69    1
    70     5    70    1
    71     7    71    1
    72     8    72    1
    73     9    73    1
    74    10    74    1
    75    12    75    1
    76    13    76    1
    77    14    77    1
    78    17    78    1
    79    17    79    1
    80    18    80    1
    81    19    81    1
    82    19    82    1
    83    19    83    1
    84    20    84    1
    85    20    85    1
    86    20    86    1
    87    21    87    1
    88    22    88    1
    89    25    89    1
    90    25    90    1
    91    26    91    1
    92    27    92    1
    93    28    93    1
    94    31    94    1
    95    31    95    1
    96    32    96    1
    97    33    97    1
    98    33    98    1
    99    33    99    1
   100    34   100    1
   101    34   101    1
   102    34   102    1
   103    35   103    1
   104    36   104    1
   105    39   105    1
   106    39   106    1
   107    40   107    1
   108    41   108    1
   109    41   109    1
   110    41   110    1
   111    42   111    1
   112    42   112    1
   113    42   113    1
   114    43   114    1
   115    44   115    1
   116    47   116    1
   117    47   117    1
   118    48   118    1
   119    48   119    1
   120    51   120    1
   121    51   121    1
   122    52   122    1
   123    53   123    1
   124    56   124    1
   125    56   125    1
   126    57   126    1
   127    57   127    1
   128    58   128    1
   129    58   129    1
   130    59   130    1
   131    61   131    1
   132    61   132    1
   133    62   133    1
   134    62   134    1
   135    62   135    1
